# generated using pymatgen
data_BaSe
_symmetry_space_group_name_H-M   'P 1'
_cell_length_a   4.58875263
_cell_length_b   4.58875263
_cell_length_c   8.47649972
_cell_angle_alpha   105.80012283
_cell_angle_beta   105.80012283
_cell_angle_gamma   60.04130898
_symmetry_Int_Tables_number   1
_chemical_formula_structural   BaSe
_chemical_formula_sum   'Ba2 Se2'
_cell_volume   146.79311135
_cell_formula_units_Z   2
loop_
 _symmetry_equiv_pos_site_id
 _symmetry_equiv_pos_as_xyz
  1  'x, y, z'
loop_
 _atom_site_type_symbol
 _atom_site_label
 _atom_site_symmetry_multiplicity
 _atom_site_fract_x
 _atom_site_fract_y
 _atom_site_fract_z
 _atom_site_occupancy
  Ba  Ba0  1  0.97472825  0.97472825  0.04556630  1
  Ba  Ba1  1  0.14338448  0.14338448  0.55252643  1
  Se  Se2  1  0.55969257  0.55969257  0.80141656  1
  Se  Se3  1  0.39163482  0.39163482  0.29612352  1
