# generated using pymatgen
data_ZnGaPSe
_symmetry_space_group_name_H-M   'P 1'
_cell_length_a   6.92143092
_cell_length_b   6.92143092
_cell_length_c   6.92143092
_cell_angle_alpha   33.16055988
_cell_angle_beta   33.16055988
_cell_angle_gamma   33.16055988
_symmetry_Int_Tables_number   1
_chemical_formula_structural   ZnGaPSe
_chemical_formula_sum   'Zn1 Ga1 P1 Se1'
_cell_volume   88.30858806
_cell_formula_units_Z   1
loop_
 _symmetry_equiv_pos_site_id
 _symmetry_equiv_pos_as_xyz
  1  'x, y, z'
loop_
 _atom_site_type_symbol
 _atom_site_label
 _atom_site_symmetry_multiplicity
 _atom_site_fract_x
 _atom_site_fract_y
 _atom_site_fract_z
 _atom_site_occupancy
  Ga  Ga0  1  0.49572137  0.49572137  0.49572137  1
  P  P1  1  0.12563864  0.12563864  0.12563864  1
  Se  Se2  1  0.62320217  0.62320217  0.62320217  1
  Zn  Zn3  1  0.00543682  0.00543682  0.00543682  1
