# generated using pymatgen
data_BaPdS
_symmetry_space_group_name_H-M   'P 1'
_cell_length_a   5.22414588
_cell_length_b   5.22414588
_cell_length_c   4.31356588
_cell_angle_alpha   90.00000000
_cell_angle_beta   90.00000000
_cell_angle_gamma   120.00000000
_symmetry_Int_Tables_number   1
_chemical_formula_structural   BaPdS
_chemical_formula_sum   'Ba1 Pd1 S1'
_cell_volume   101.95244826
_cell_formula_units_Z   1
loop_
 _symmetry_equiv_pos_site_id
 _symmetry_equiv_pos_as_xyz
  1  'x, y, z'
loop_
 _atom_site_type_symbol
 _atom_site_label
 _atom_site_symmetry_multiplicity
 _atom_site_fract_x
 _atom_site_fract_y
 _atom_site_fract_z
 _atom_site_occupancy
  Ba  Ba0  1  0.00000000  0.00000000  0.00000000  1
  Pd  Pd1  1  0.33333333  0.66666667  0.00000000  1
  S  S2  1  0.66666667  0.33333333  0.00000000  1
