# generated using pymatgen
data_ZnCu2GeS4
_symmetry_space_group_name_H-M   'P 1'
_cell_length_a   6.56236729
_cell_length_b   6.56236729
_cell_length_c   6.56236729
_cell_angle_alpha   132.02825124
_cell_angle_beta   132.02825124
_cell_angle_gamma   70.18441078
_symmetry_Int_Tables_number   1
_chemical_formula_structural   ZnCu2GeS4
_chemical_formula_sum   'Zn1 Cu2 Ge1 S4'
_cell_volume   152.84856547
_cell_formula_units_Z   1
loop_
 _symmetry_equiv_pos_site_id
 _symmetry_equiv_pos_as_xyz
  1  'x, y, z'
loop_
 _atom_site_type_symbol
 _atom_site_label
 _atom_site_symmetry_multiplicity
 _atom_site_fract_x
 _atom_site_fract_y
 _atom_site_fract_z
 _atom_site_occupancy
  Cu  Cu0  1  0.75000000  0.25000000  0.50000000  1
  Cu  Cu1  1  0.25000000  0.75000000  0.50000000  1
  Ge  Ge2  1  0.50000000  0.50000000  0.00000000  1
  S  S3  1  0.87063998  0.38420309  -0.00000000  1
  S  S4  1  0.61579691  0.61579691  0.48643688  1
  S  S5  1  0.38420309  0.87063998  -0.00000000  1
  S  S6  1  0.12936002  0.12936002  0.51356312  1
  Zn  Zn7  1  0.00000000  0.00000000  0.00000000  1
