# generated using pymatgen
data_Tl3AsSe3
_symmetry_space_group_name_H-M   'P 1'
_cell_length_a   6.26641920
_cell_length_b   6.26641920
_cell_length_c   6.26641920
_cell_angle_alpha   106.34179655
_cell_angle_beta   106.34179655
_cell_angle_gamma   106.34179655
_symmetry_Int_Tables_number   1
_chemical_formula_structural   Tl3AsSe3
_chemical_formula_sum   'Tl3 As1 Se3'
_cell_volume   208.49942126
_cell_formula_units_Z   1
loop_
 _symmetry_equiv_pos_site_id
 _symmetry_equiv_pos_as_xyz
  1  'x, y, z'
loop_
 _atom_site_type_symbol
 _atom_site_label
 _atom_site_symmetry_multiplicity
 _atom_site_fract_x
 _atom_site_fract_y
 _atom_site_fract_z
 _atom_site_occupancy
  As  As0  1  0.30556597  0.30556597  0.30556597  1
  Se  Se1  1  0.28185990  0.28185990  0.90413452  1
  Se  Se2  1  0.90413452  0.28185990  0.28185990  1
  Se  Se3  1  0.28185990  0.90413452  0.28185990  1
  Tl  Tl4  1  0.84179000  0.45400072  0.84179000  1
  Tl  Tl5  1  0.84179000  0.84179000  0.45400072  1
  Tl  Tl6  1  0.45400072  0.84179000  0.84179000  1
