# generated using pymatgen
data_ZnS
_symmetry_space_group_name_H-M   'P 1'
_cell_length_a   3.83993926
_cell_length_b   3.83993926
_cell_length_c   18.85250437
_cell_angle_alpha   90.00000000
_cell_angle_beta   90.00000000
_cell_angle_gamma   120.00000000
_symmetry_Int_Tables_number   1
_chemical_formula_structural   ZnS
_chemical_formula_sum   'Zn6 S6'
_cell_volume   240.74007469
_cell_formula_units_Z   6
loop_
 _symmetry_equiv_pos_site_id
 _symmetry_equiv_pos_as_xyz
  1  'x, y, z'
loop_
 _atom_site_type_symbol
 _atom_site_label
 _atom_site_symmetry_multiplicity
 _atom_site_fract_x
 _atom_site_fract_y
 _atom_site_fract_z
 _atom_site_occupancy
  S  S0  1  0.66666667  0.33333333  0.54192657  1
  S  S1  1  0.33333333  0.66666667  0.04192657  1
  S  S2  1  0.33333333  0.66666667  0.70836440  1
  S  S3  1  0.66666667  0.33333333  0.20836440  1
  S  S4  1  0.00000000  0.00000000  0.87490956  1
  S  S5  1  0.00000000  0.00000000  0.37490956  1
  Zn  Zn6  1  0.66666667  0.33333333  0.66671296  1
  Zn  Zn7  1  0.33333333  0.66666667  0.16671296  1
  Zn  Zn8  1  0.33333333  0.66666667  0.83311752  1
  Zn  Zn9  1  0.66666667  0.33333333  0.33311752  1
  Zn  Zn10  1  0.00000000  0.00000000  0.99996899  1
  Zn  Zn11  1  0.00000000  0.00000000  0.49996899  1
