# generated using pymatgen
data_CoAsS
_symmetry_space_group_name_H-M   'P 1'
_cell_length_a   3.48690371
_cell_length_b   4.63082151
_cell_length_c   5.59646476
_cell_angle_alpha   90.00000000
_cell_angle_beta   90.00000000
_cell_angle_gamma   90.00000000
_symmetry_Int_Tables_number   1
_chemical_formula_structural   CoAsS
_chemical_formula_sum   'Co2 As2 S2'
_cell_volume   90.36739629
_cell_formula_units_Z   2
loop_
 _symmetry_equiv_pos_site_id
 _symmetry_equiv_pos_as_xyz
  1  'x, y, z'
loop_
 _atom_site_type_symbol
 _atom_site_label
 _atom_site_symmetry_multiplicity
 _atom_site_fract_x
 _atom_site_fract_y
 _atom_site_fract_z
 _atom_site_occupancy
  As  As0  1  0.50000000  0.54029532  0.37129426  1
  As  As1  1  0.00000000  0.45970468  0.87129426  1
  Co  Co2  1  0.50000000  0.76250973  0.99722880  1
  Co  Co3  1  0.00000000  0.23749027  0.49722880  1
  S  S4  1  0.50000000  0.95023358  0.62532693  1
  S  S5  1  0.00000000  0.04976642  0.12532693  1
