# generated using pymatgen
data_CoAsS
_symmetry_space_group_name_H-M   'P 1'
_cell_length_a   3.48689187
_cell_length_b   4.63059123
_cell_length_c   5.59649670
_cell_angle_alpha   90.00000000
_cell_angle_beta   90.00000000
_cell_angle_gamma   90.00000000
_symmetry_Int_Tables_number   1
_chemical_formula_structural   CoAsS
_chemical_formula_sum   'Co2 As2 S2'
_cell_volume   90.36311175
_cell_formula_units_Z   2
loop_
 _symmetry_equiv_pos_site_id
 _symmetry_equiv_pos_as_xyz
  1  'x, y, z'
loop_
 _atom_site_type_symbol
 _atom_site_label
 _atom_site_symmetry_multiplicity
 _atom_site_fract_x
 _atom_site_fract_y
 _atom_site_fract_z
 _atom_site_occupancy
  As  As0  1  0.50000000  0.04028431  0.37128445  1
  As  As1  1  0.00000000  0.95971569  0.87128445  1
  Co  Co2  1  0.00000000  0.73749822  0.49723339  1
  Co  Co3  1  0.50000000  0.26250178  0.99723339  1
  S  S4  1  0.00000000  0.54977799  0.12533216  1
  S  S5  1  0.50000000  0.45022201  0.62533216  1
