# generated using pymatgen
data_Sr(YS2)2
_symmetry_space_group_name_H-M   'P 1'
_cell_length_a   7.36129935
_cell_length_b   7.36129935
_cell_length_c   7.36129935
_cell_angle_alpha   109.35112815
_cell_angle_beta   109.35112815
_cell_angle_gamma   109.71167351
_symmetry_Int_Tables_number   1
_chemical_formula_structural   Sr(YS2)2
_chemical_formula_sum   'Sr2 Y4 S8'
_cell_volume   307.06888055
_cell_formula_units_Z   2
loop_
 _symmetry_equiv_pos_site_id
 _symmetry_equiv_pos_as_xyz
  1  'x, y, z'
loop_
 _atom_site_type_symbol
 _atom_site_label
 _atom_site_symmetry_multiplicity
 _atom_site_fract_x
 _atom_site_fract_y
 _atom_site_fract_z
 _atom_site_occupancy
  S  S0  1  0.63750680  0.23722524  0.74642621  1
  S  S1  1  0.98722524  0.88750680  0.24642621  1
  S  S2  1  0.76277476  0.50920097  0.40028155  1
  S  S3  1  0.49079903  0.89108058  0.25357379  1
  S  S4  1  0.64108058  0.74079903  0.75357379  1
  S  S5  1  0.11249320  0.35891942  0.09971845  1
  S  S6  1  0.25920097  0.01277476  0.90028155  1
  S  S7  1  0.10891942  0.36249320  0.59971845  1
  Sr  Sr8  1  0.50000000  0.50000000  0.00000000  1
  Sr  Sr9  1  0.25000000  0.75000000  0.50000000  1
  Y  Y10  1  0.99640917  0.62500000  0.87140917  1
  Y  Y11  1  0.87500000  0.00359083  0.62859083  1
  Y  Y12  1  0.75359083  0.12500000  0.12859083  1
  Y  Y13  1  0.37500000  0.24640917  0.37140917  1
