# generated using pymatgen
data_Ag3AsS3
_symmetry_space_group_name_H-M   'P 1'
_cell_length_a   6.89813424
_cell_length_b   6.89813424
_cell_length_c   6.89813424
_cell_angle_alpha   101.60460964
_cell_angle_beta   101.60460964
_cell_angle_gamma   101.60460964
_symmetry_Int_Tables_number   1
_chemical_formula_structural   Ag3AsS3
_chemical_formula_sum   'Ag6 As2 S6'
_cell_volume   304.81149548
_cell_formula_units_Z   2
loop_
 _symmetry_equiv_pos_site_id
 _symmetry_equiv_pos_as_xyz
  1  'x, y, z'
loop_
 _atom_site_type_symbol
 _atom_site_label
 _atom_site_symmetry_multiplicity
 _atom_site_fract_x
 _atom_site_fract_y
 _atom_site_fract_z
 _atom_site_occupancy
  Ag  Ag0  1  0.41547326  0.60025508  0.93899782  1
  Ag  Ag1  1  0.91547326  0.43899782  0.10025508  1
  Ag  Ag2  1  0.60025508  0.93899782  0.41547326  1
  Ag  Ag3  1  0.43899782  0.10025508  0.91547326  1
  Ag  Ag4  1  0.93899782  0.41547326  0.60025508  1
  Ag  Ag5  1  0.10025508  0.91547326  0.43899782  1
  As  As6  1  0.36268273  0.36268273  0.36268273  1
  As  As7  1  0.86268273  0.86268273  0.86268273  1
  S  S8  1  0.58814764  0.27090266  0.60533981  1
  S  S9  1  0.27090266  0.60533981  0.58814764  1
  S  S10  1  0.77090266  0.08814764  0.10533981  1
  S  S11  1  0.60533981  0.58814764  0.27090266  1
  S  S12  1  0.10533981  0.77090266  0.08814764  1
  S  S13  1  0.08814764  0.10533981  0.77090266  1
