# generated using pymatgen
data_AlAgS2
_symmetry_space_group_name_H-M   'P 1'
_cell_length_a   7.21590390
_cell_length_b   7.21590390
_cell_length_c   7.21590390
_cell_angle_alpha   28.31300571
_cell_angle_beta   28.31300571
_cell_angle_gamma   28.31300571
_symmetry_Int_Tables_number   1
_chemical_formula_structural   AlAgS2
_chemical_formula_sum   'Al1 Ag1 S2'
_cell_volume   74.68374100
_cell_formula_units_Z   1
loop_
 _symmetry_equiv_pos_site_id
 _symmetry_equiv_pos_as_xyz
  1  'x, y, z'
loop_
 _atom_site_type_symbol
 _atom_site_label
 _atom_site_symmetry_multiplicity
 _atom_site_fract_x
 _atom_site_fract_y
 _atom_site_fract_z
 _atom_site_occupancy
  Ag  Ag0  1  0.84439534  0.84439534  0.84439534  1
  Al  Al1  1  0.00108280  0.00108280  0.00108280  1
  S  S2  1  0.72810414  0.72810414  0.72810414  1
  S  S3  1  0.26741938  0.26741938  0.26741938  1
