# generated using pymatgen
data_RbHSe
_symmetry_space_group_name_H-M   'P 1'
_cell_length_a   6.95869138
_cell_length_b   6.95869138
_cell_length_c   6.95938988
_cell_angle_alpha   90.00000000
_cell_angle_beta   90.00000000
_cell_angle_gamma   90.00000000
_symmetry_Int_Tables_number   1
_chemical_formula_structural   RbHSe
_chemical_formula_sum   'Rb1 H1 Se1'
_cell_volume   336.99722027
_cell_formula_units_Z   1
loop_
 _symmetry_equiv_pos_site_id
 _symmetry_equiv_pos_as_xyz
  1  'x, y, z'
loop_
 _atom_site_type_symbol
 _atom_site_label
 _atom_site_symmetry_multiplicity
 _atom_site_fract_x
 _atom_site_fract_y
 _atom_site_fract_z
 _atom_site_occupancy
  H  H0  1  0.00000000  0.00000000  0.24175940  1
  Rb  Rb1  1  0.00000000  0.00000000  0.59986452  1
  Se  Se2  1  0.00000000  0.00000000  0.03143148  1
