# generated using pymatgen
data_MoW3(SeS)4
_symmetry_space_group_name_H-M   'P 1'
_cell_length_a   3.25683903
_cell_length_b   3.25683903
_cell_length_c   33.11087147
_cell_angle_alpha   90.00000000
_cell_angle_beta   90.00000000
_cell_angle_gamma   120.00000000
_symmetry_Int_Tables_number   1
_chemical_formula_structural   MoW3(SeS)4
_chemical_formula_sum   'Mo1 W3 Se4 S4'
_cell_volume   304.15420983
_cell_formula_units_Z   1
loop_
 _symmetry_equiv_pos_site_id
 _symmetry_equiv_pos_as_xyz
  1  'x, y, z'
loop_
 _atom_site_type_symbol
 _atom_site_label
 _atom_site_symmetry_multiplicity
 _atom_site_fract_x
 _atom_site_fract_y
 _atom_site_fract_z
 _atom_site_occupancy
  Mo  Mo0  1  0.00000000  0.00000000  0.08714520  1
  S  S1  1  0.00000000  0.00000000  0.32901827  1
  S  S2  1  0.33333333  0.66666667  0.42269134  1
  S  S3  1  0.33333333  0.66666667  0.51651569  1
  S  S4  1  0.00000000  0.00000000  0.23518284  1
  Se  Se5  1  0.00000000  0.00000000  0.71561404  1
  Se  Se6  1  0.33333333  0.66666667  0.03590083  1
  Se  Se7  1  0.33333333  0.66666667  0.13844971  1
  Se  Se8  1  0.00000000  0.00000000  0.61245929  1
  W  W9  1  0.00000000  0.00000000  0.46959589  1
  W  W10  1  0.33333333  0.66666667  0.28210979  1
  W  W11  1  0.33333333  0.66666667  0.66406511  1
