# generated using pymatgen
data_MoW3(SeS)4
_symmetry_space_group_name_H-M   'P 1'
_cell_length_a   3.26360171
_cell_length_b   3.26360171
_cell_length_c   36.59880462
_cell_angle_alpha   90.00000000
_cell_angle_beta   90.00000000
_cell_angle_gamma   120.00000000
_symmetry_Int_Tables_number   1
_chemical_formula_structural   MoW3(SeS)4
_chemical_formula_sum   'Mo1 W3 Se4 S4'
_cell_volume   337.59175934
_cell_formula_units_Z   1
loop_
 _symmetry_equiv_pos_site_id
 _symmetry_equiv_pos_as_xyz
  1  'x, y, z'
loop_
 _atom_site_type_symbol
 _atom_site_label
 _atom_site_symmetry_multiplicity
 _atom_site_fract_x
 _atom_site_fract_y
 _atom_site_fract_z
 _atom_site_occupancy
  Mo  Mo0  1  0.00000000  0.00000000  0.09390546  1
  S  S1  1  0.00000000  0.00000000  0.32431304  1
  S  S2  1  0.00000000  0.00000000  0.69975384  1
  S  S3  1  0.00000000  0.00000000  0.23927731  1
  S  S4  1  0.00000000  0.00000000  0.61504259  1
  Se  Se5  1  0.33333333  0.66666667  0.04783850  1
  Se  Se6  1  0.33333333  0.66666667  0.42299919  1
  Se  Se7  1  0.33333333  0.66666667  0.14029330  1
  Se  Se8  1  0.33333333  0.66666667  0.51629938  1
  W  W9  1  0.00000000  0.00000000  0.46969849  1
  W  W10  1  0.33333333  0.66666667  0.28179751  1
  W  W11  1  0.33333333  0.66666667  0.65753040  1
