# generated using pymatgen
data_GaAgS2
_symmetry_space_group_name_H-M   'P 1'
_cell_length_a   6.65325761
_cell_length_b   6.65325761
_cell_length_c   6.65325761
_cell_angle_alpha   128.68699163
_cell_angle_beta   128.68699163
_cell_angle_gamma   75.51474143
_symmetry_Int_Tables_number   1
_chemical_formula_structural   GaAgS2
_chemical_formula_sum   'Ga2 Ag2 S4'
_cell_volume   174.60280732
_cell_formula_units_Z   2
loop_
 _symmetry_equiv_pos_site_id
 _symmetry_equiv_pos_as_xyz
  1  'x, y, z'
loop_
 _atom_site_type_symbol
 _atom_site_label
 _atom_site_symmetry_multiplicity
 _atom_site_fract_x
 _atom_site_fract_y
 _atom_site_fract_z
 _atom_site_occupancy
  Ag  Ag0  1  0.00000000  0.00000000  0.00000000  1
  Ag  Ag1  1  0.75000000  0.25000000  0.50000000  1
  Ga  Ga2  1  0.50000000  0.50000000  0.00000000  1
  Ga  Ga3  1  0.25000000  0.75000000  0.50000000  1
  S  S4  1  0.16095077  0.12500000  0.53595077  1
  S  S5  1  0.37500000  0.83904923  0.96404923  1
  S  S6  1  0.87500000  0.41095077  0.03595077  1
  S  S7  1  0.58904923  0.62500000  0.46404923  1
