# generated using pymatgen
data_Sm2ZnS4
_symmetry_space_group_name_H-M   'P 1'
_cell_length_a   7.35502626
_cell_length_b   7.35502626
_cell_length_c   7.35502626
_cell_angle_alpha   111.19900076
_cell_angle_beta   111.19900076
_cell_angle_gamma   106.06832016
_symmetry_Int_Tables_number   1
_chemical_formula_structural   Sm2ZnS4
_chemical_formula_sum   'Sm4 Zn2 S8'
_cell_volume   305.48444723
_cell_formula_units_Z   2
loop_
 _symmetry_equiv_pos_site_id
 _symmetry_equiv_pos_as_xyz
  1  'x, y, z'
loop_
 _atom_site_type_symbol
 _atom_site_label
 _atom_site_symmetry_multiplicity
 _atom_site_fract_x
 _atom_site_fract_y
 _atom_site_fract_z
 _atom_site_occupancy
  S  S0  1  0.64584770  0.99434766  0.78026053  1
  S  S1  1  0.10415230  0.38441283  0.84849996  1
  S  S2  1  0.74434766  0.89584770  0.28026053  1
  S  S3  1  0.00565234  0.78591287  0.65150004  1
  S  S4  1  0.21408713  0.86558717  0.21973947  1
  S  S5  1  0.13441283  0.35415230  0.34849996  1
  S  S6  1  0.53591287  0.25565234  0.15150004  1
  S  S7  1  0.61558717  0.46408713  0.71973947  1
  Sm  Sm8  1  0.87500000  0.47768215  0.10268215  1
  Sm  Sm9  1  0.22768215  0.12500000  0.60268215  1
  Sm  Sm10  1  0.37500000  0.77231785  0.89731785  1
  Sm  Sm11  1  0.52231785  0.62500000  0.39731785  1
  Zn  Zn12  1  0.75000000  0.25000000  0.50000000  1
  Zn  Zn13  1  0.00000000  0.00000000  0.00000000  1
