# generated using pymatgen
data_ZnAg2SnS4
_symmetry_space_group_name_H-M   'P 1'
_cell_length_a   7.23345847
_cell_length_b   7.23345847
_cell_length_c   7.23345847
_cell_angle_alpha   135.03773271
_cell_angle_beta   135.03773271
_cell_angle_gamma   65.47157703
_symmetry_Int_Tables_number   1
_chemical_formula_structural   ZnAg2SnS4
_chemical_formula_sum   'Zn1 Ag2 Sn1 S4'
_cell_volume   186.19666269
_cell_formula_units_Z   1
loop_
 _symmetry_equiv_pos_site_id
 _symmetry_equiv_pos_as_xyz
  1  'x, y, z'
loop_
 _atom_site_type_symbol
 _atom_site_label
 _atom_site_symmetry_multiplicity
 _atom_site_fract_x
 _atom_site_fract_y
 _atom_site_fract_z
 _atom_site_occupancy
  Ag  Ag0  1  0.75000000  0.25000000  0.50000000  1
  Ag  Ag1  1  0.25000000  0.75000000  0.50000000  1
  S  S2  1  0.12720760  0.64019896  0.00000000  1
  S  S3  1  0.64019896  0.12720760  0.00000000  1
  S  S4  1  0.87279240  0.87279240  0.51299136  1
  S  S5  1  0.35980104  0.35980104  0.48700864  1
  Sn  Sn6  1  0.50000000  0.50000000  0.00000000  1
  Zn  Zn7  1  0.00000000  0.00000000  0.00000000  1
