# generated using pymatgen
data_InAgSe2
_symmetry_space_group_name_H-M   'P 1'
_cell_length_a   7.41700905
_cell_length_b   7.41700905
_cell_length_c   7.41700905
_cell_angle_alpha   130.90753148
_cell_angle_beta   130.90753148
_cell_angle_gamma   71.96003333
_symmetry_Int_Tables_number   1
_chemical_formula_structural   InAgSe2
_chemical_formula_sum   'In2 Ag2 Se4'
_cell_volume   227.93149004
_cell_formula_units_Z   2
loop_
 _symmetry_equiv_pos_site_id
 _symmetry_equiv_pos_as_xyz
  1  'x, y, z'
loop_
 _atom_site_type_symbol
 _atom_site_label
 _atom_site_symmetry_multiplicity
 _atom_site_fract_x
 _atom_site_fract_y
 _atom_site_fract_z
 _atom_site_occupancy
  Ag  Ag0  1  0.00000000  0.00000000  0.00000000  1
  Ag  Ag1  1  0.75000000  0.25000000  0.50000000  1
  In  In2  1  0.25000000  0.75000000  0.50000000  1
  In  In3  1  0.50000000  0.50000000  0.00000000  1
  Se  Se4  1  0.62231154  0.62500000  0.49731154  1
  Se  Se5  1  0.37500000  0.87231154  0.99731154  1
  Se  Se6  1  0.12768846  0.12500000  0.50268846  1
  Se  Se7  1  0.87500000  0.37768846  0.00268846  1
