# generated using pymatgen
data_Te6Mo3WSe2
_symmetry_space_group_name_H-M   'P 1'
_cell_length_a   3.50245752
_cell_length_b   3.50245752
_cell_length_c   37.37918818
_cell_angle_alpha   90.00000000
_cell_angle_beta   90.00000000
_cell_angle_gamma   120.00000000
_symmetry_Int_Tables_number   1
_chemical_formula_structural   Te6Mo3WSe2
_chemical_formula_sum   'Te6 Mo3 W1 Se2'
_cell_volume   397.10581805
_cell_formula_units_Z   1
loop_
 _symmetry_equiv_pos_site_id
 _symmetry_equiv_pos_as_xyz
  1  'x, y, z'
loop_
 _atom_site_type_symbol
 _atom_site_label
 _atom_site_symmetry_multiplicity
 _atom_site_fract_x
 _atom_site_fract_y
 _atom_site_fract_z
 _atom_site_occupancy
  Mo  Mo0  1  0.00000000  0.00000000  0.08945742  1
  Mo  Mo1  1  0.00000000  0.00000000  0.47445817  1
  Mo  Mo2  1  0.33333333  0.66666667  0.28197817  1
  Se  Se3  1  0.00000000  0.00000000  0.70040089  1
  Se  Se4  1  0.00000000  0.00000000  0.61357184  1
  Te  Te5  1  0.00000000  0.00000000  0.33111645  1
  Te  Te6  1  0.33333333  0.66666667  0.04039530  1
  Te  Te7  1  0.33333333  0.66666667  0.42531842  1
  Te  Te8  1  0.33333333  0.66666667  0.13861239  1
  Te  Te9  1  0.33333333  0.66666667  0.52357447  1
  Te  Te10  1  0.00000000  0.00000000  0.23284202  1
  W  W11  1  0.33333333  0.66666667  0.65702345  1
