# generated using pymatgen
data_AlCuSe2
_symmetry_space_group_name_H-M   'P 1'
_cell_length_a   6.84333163
_cell_length_b   6.84333163
_cell_length_c   6.84333163
_cell_angle_alpha   131.32316836
_cell_angle_beta   131.32316836
_cell_angle_gamma   71.30013271
_symmetry_Int_Tables_number   1
_chemical_formula_structural   AlCuSe2
_chemical_formula_sum   'Al2 Cu2 Se4'
_cell_volume   176.92688225
_cell_formula_units_Z   2
loop_
 _symmetry_equiv_pos_site_id
 _symmetry_equiv_pos_as_xyz
  1  'x, y, z'
loop_
 _atom_site_type_symbol
 _atom_site_label
 _atom_site_symmetry_multiplicity
 _atom_site_fract_x
 _atom_site_fract_y
 _atom_site_fract_z
 _atom_site_occupancy
  Al  Al0  1  0.50000000  0.50000000  0.00000000  1
  Al  Al1  1  0.25000000  0.75000000  0.50000000  1
  Cu  Cu2  1  0.00000000  0.00000000  0.00000000  1
  Cu  Cu3  1  0.75000000  0.25000000  0.50000000  1
  Se  Se4  1  0.12854182  0.12500000  0.50354182  1
  Se  Se5  1  0.87500000  0.37854182  0.00354182  1
  Se  Se6  1  0.37500000  0.87145818  0.99645818  1
  Se  Se7  1  0.62145818  0.62500000  0.49645818  1
