# generated using pymatgen
data_Te2Mo3WSe6
_symmetry_space_group_name_H-M   'P 1'
_cell_length_a   3.38472508
_cell_length_b   3.38472508
_cell_length_c   35.54618478
_cell_angle_alpha   90.00000000
_cell_angle_beta   90.00000000
_cell_angle_gamma   120.00000000
_symmetry_Int_Tables_number   1
_chemical_formula_structural   Te2Mo3WSe6
_chemical_formula_sum   'Te2 Mo3 W1 Se6'
_cell_volume   352.67154784
_cell_formula_units_Z   1
loop_
 _symmetry_equiv_pos_site_id
 _symmetry_equiv_pos_as_xyz
  1  'x, y, z'
loop_
 _atom_site_type_symbol
 _atom_site_label
 _atom_site_symmetry_multiplicity
 _atom_site_fract_x
 _atom_site_fract_y
 _atom_site_fract_z
 _atom_site_occupancy
  Mo  Mo0  1  0.33333333  0.66666667  0.09691332  1
  Mo  Mo1  1  0.33333333  0.66666667  0.46514382  1
  Mo  Mo2  1  0.66666667  0.33333333  0.65982206  1
  Se  Se3  1  0.33333333  0.66666667  0.32779747  1
  Se  Se4  1  0.66666667  0.33333333  0.05042874  1
  Se  Se5  1  0.66666667  0.33333333  0.41861420  1
  Se  Se6  1  0.66666667  0.33333333  0.14345647  1
  Se  Se7  1  0.66666667  0.33333333  0.51170796  1
  Se  Se8  1  0.33333333  0.66666667  0.23428111  1
  Te  Te9  1  0.33333333  0.66666667  0.71273993  1
  Te  Te10  1  0.33333333  0.66666667  0.60680523  1
  W  W11  1  0.66666667  0.33333333  0.28103969  1
