# generated using pymatgen
data_MoW(SeS)2
_symmetry_space_group_name_H-M   'P 1'
_cell_length_a   3.25736652
_cell_length_b   3.25736652
_cell_length_c   33.75406915
_cell_angle_alpha   90.00000000
_cell_angle_beta   90.00000000
_cell_angle_gamma   120.00000000
_symmetry_Int_Tables_number   1
_chemical_formula_structural   MoW(SeS)2
_chemical_formula_sum   'Mo2 W2 Se4 S4'
_cell_volume   310.16302542
_cell_formula_units_Z   2
loop_
 _symmetry_equiv_pos_site_id
 _symmetry_equiv_pos_as_xyz
  1  'x, y, z'
loop_
 _atom_site_type_symbol
 _atom_site_label
 _atom_site_symmetry_multiplicity
 _atom_site_fract_x
 _atom_site_fract_y
 _atom_site_fract_z
 _atom_site_occupancy
  Mo  Mo0  1  0.00000000  0.00000000  0.09037589  1
  Mo  Mo1  1  0.33333333  0.66666667  0.28051457  1
  S  S2  1  0.00000000  0.00000000  0.32631855  1
  S  S3  1  0.00000000  0.00000000  0.70742875  1
  S  S4  1  0.00000000  0.00000000  0.23470340  1
  S  S5  1  0.00000000  0.00000000  0.61541313  1
  Se  Se6  1  0.33333333  0.66666667  0.04011712  1
  Se  Se7  1  0.33333333  0.66666667  0.41996723  1
  Se  Se8  1  0.33333333  0.66666667  0.14069067  1
  Se  Se9  1  0.33333333  0.66666667  0.52119310  1
  W  W10  1  0.00000000  0.00000000  0.47058106  1
  W  W11  1  0.33333333  0.66666667  0.66144453  1
