# generated using pymatgen
data_Ca2SnS4
_symmetry_space_group_name_H-M   'P 1'
_cell_length_a   9.72622211
_cell_length_b   6.12021219
_cell_length_c   6.12021219
_cell_angle_alpha   110.28884489
_cell_angle_beta   90.00000000
_cell_angle_gamma   90.00000000
_symmetry_Int_Tables_number   1
_chemical_formula_structural   Ca2SnS4
_chemical_formula_sum   'Ca4 Sn2 S8'
_cell_volume   341.71167917
_cell_formula_units_Z   2
loop_
 _symmetry_equiv_pos_site_id
 _symmetry_equiv_pos_as_xyz
  1  'x, y, z'
loop_
 _atom_site_type_symbol
 _atom_site_label
 _atom_site_symmetry_multiplicity
 _atom_site_fract_x
 _atom_site_fract_y
 _atom_site_fract_z
 _atom_site_occupancy
  Ca  Ca0  1  0.25000000  0.14038736  0.52480864  1
  Ca  Ca1  1  0.75000000  0.52480864  0.14038736  1
  Ca  Ca2  1  0.50000000  0.79608343  0.79608343  1
  Ca  Ca3  1  0.00000000  0.79608343  0.79608343  1
  S  S4  1  0.25000000  0.92516727  0.05191111  1
  S  S5  1  0.75000000  0.05191111  0.92516727  1
  S  S6  1  0.25000000  0.61805229  0.51024078  1
  S  S7  1  0.75000000  0.51024078  0.61805229  1
  S  S8  1  0.44895851  0.34787488  0.88038285  1
  S  S9  1  0.55104149  0.88038285  0.34787488  1
  S  S10  1  0.05104149  0.34787488  0.88038285  1
  S  S11  1  0.94895851  0.88038285  0.34787488  1
  Sn  Sn12  1  0.25000000  0.54153409  0.09795516  1
  Sn  Sn13  1  0.75000000  0.09795516  0.54153409  1
