# generated using pymatgen
data_TlAg2SbS4
_symmetry_space_group_name_H-M   'P 1'
_cell_length_a   6.47143253
_cell_length_b   6.47143253
_cell_length_c   6.47143253
_cell_angle_alpha   115.36441798
_cell_angle_beta   115.36441798
_cell_angle_gamma   98.23606271
_symmetry_Int_Tables_number   1
_chemical_formula_structural   TlAg2SbS4
_chemical_formula_sum   'Tl1 Ag2 Sb1 S4'
_cell_volume   202.79385454
_cell_formula_units_Z   1
loop_
 _symmetry_equiv_pos_site_id
 _symmetry_equiv_pos_as_xyz
  1  'x, y, z'
loop_
 _atom_site_type_symbol
 _atom_site_label
 _atom_site_symmetry_multiplicity
 _atom_site_fract_x
 _atom_site_fract_y
 _atom_site_fract_z
 _atom_site_occupancy
  Ag  Ag0  1  0.75000000  0.25000000  0.50000000  1
  Ag  Ag1  1  0.25000000  0.75000000  0.50000000  1
  S  S2  1  0.54255769  0.54255769  0.40326979  1
  S  S3  1  0.13928790  0.13928790  0.59673021  1
  S  S4  1  0.86071210  0.45744231  0.00000000  1
  S  S5  1  0.45744231  0.86071210  0.00000000  1
  Sb  Sb6  1  0.50000000  0.50000000  0.00000000  1
  Tl  Tl7  1  0.00000000  0.00000000  0.00000000  1
