# generated using pymatgen
data_Na3PS4
_symmetry_space_group_name_H-M   'P 1'
_cell_length_a   6.92263468
_cell_length_b   6.92263468
_cell_length_c   7.07525558
_cell_angle_alpha   90.00000000
_cell_angle_beta   90.00000000
_cell_angle_gamma   90.00000000
_symmetry_Int_Tables_number   1
_chemical_formula_structural   Na3PS4
_chemical_formula_sum   'Na6 P2 S8'
_cell_volume   339.06656001
_cell_formula_units_Z   2
loop_
 _symmetry_equiv_pos_site_id
 _symmetry_equiv_pos_as_xyz
  1  'x, y, z'
loop_
 _atom_site_type_symbol
 _atom_site_label
 _atom_site_symmetry_multiplicity
 _atom_site_fract_x
 _atom_site_fract_y
 _atom_site_fract_z
 _atom_site_occupancy
  Na  Na0  1  0.50000000  0.00000000  0.42204554  1
  Na  Na1  1  0.00000000  0.50000000  0.57795446  1
  Na  Na2  1  0.00000000  0.50000000  0.07795446  1
  Na  Na3  1  0.50000000  0.00000000  0.92204554  1
  Na  Na4  1  0.00000000  0.00000000  0.00000000  1
  Na  Na5  1  0.50000000  0.50000000  0.50000000  1
  P  P6  1  0.00000000  0.00000000  0.50000000  1
  P  P7  1  0.50000000  0.50000000  0.00000000  1
  S  S8  1  0.65326581  0.30786581  0.16733606  1
  S  S9  1  0.30786581  0.34673419  0.83266394  1
  S  S10  1  0.69213419  0.65326581  0.83266394  1
  S  S11  1  0.84673419  0.80786581  0.33266394  1
  S  S12  1  0.15326581  0.19213419  0.33266394  1
  S  S13  1  0.34673419  0.69213419  0.16733606  1
  S  S14  1  0.80786581  0.15326581  0.66733606  1
  S  S15  1  0.19213419  0.84673419  0.66733606  1
