# generated using pymatgen
data_MoWSe4
_symmetry_space_group_name_H-M   'P 1'
_cell_length_a   3.32757426
_cell_length_b   3.32757426
_cell_length_c   35.21742072
_cell_angle_alpha   90.00000000
_cell_angle_beta   90.00000000
_cell_angle_gamma   120.00000000
_symmetry_Int_Tables_number   1
_chemical_formula_structural   MoWSe4
_chemical_formula_sum   'Mo2 W2 Se8'
_cell_volume   337.70981961
_cell_formula_units_Z   2
loop_
 _symmetry_equiv_pos_site_id
 _symmetry_equiv_pos_as_xyz
  1  'x, y, z'
loop_
 _atom_site_type_symbol
 _atom_site_label
 _atom_site_symmetry_multiplicity
 _atom_site_fract_x
 _atom_site_fract_y
 _atom_site_fract_z
 _atom_site_occupancy
  Mo  Mo0  1  0.00000000  0.00000000  0.09494699  1
  Mo  Mo1  1  0.33333333  0.66666667  0.28184084  1
  Se  Se2  1  0.00000000  0.00000000  0.32935467  1
  Se  Se3  1  0.00000000  0.00000000  0.70469716  1
  Se  Se4  1  0.33333333  0.66666667  0.04748383  1
  Se  Se5  1  0.33333333  0.66666667  0.42137516  1
  Se  Se6  1  0.33333333  0.66666667  0.14247221  1
  Se  Se7  1  0.33333333  0.66666667  0.51692373  1
  Se  Se8  1  0.00000000  0.00000000  0.23432566  1
  Se  Se9  1  0.00000000  0.00000000  0.60920023  1
  W  W10  1  0.00000000  0.00000000  0.46915023  1
  W  W11  1  0.33333333  0.66666667  0.65697728  1
