# generated using pymatgen
data_SeO2
_symmetry_space_group_name_H-M   'P 1'
_cell_length_a   5.16453695
_cell_length_b   4.55099860
_cell_length_c   7.37840506
_cell_angle_alpha   90.00000000
_cell_angle_beta   90.00000000
_cell_angle_gamma   90.00000000
_symmetry_Int_Tables_number   1
_chemical_formula_structural   SeO2
_chemical_formula_sum   'Se4 O8'
_cell_volume   173.42055978
_cell_formula_units_Z   4
loop_
 _symmetry_equiv_pos_site_id
 _symmetry_equiv_pos_as_xyz
  1  'x, y, z'
loop_
 _atom_site_type_symbol
 _atom_site_label
 _atom_site_symmetry_multiplicity
 _atom_site_fract_x
 _atom_site_fract_y
 _atom_site_fract_z
 _atom_site_occupancy
  O  O0  1  0.00000000  0.26690219  0.32570644  1
  O  O1  1  0.25123605  0.14904441  0.66357030  1
  O  O2  1  0.25123605  0.85095559  0.16357030  1
  O  O3  1  0.50000000  0.61022912  0.54151591  1
  O  O4  1  0.50000000  0.38977088  0.04151591  1
  O  O5  1  0.74876395  0.14904441  0.66357030  1
  O  O6  1  0.00000000  0.73309781  0.82570644  1
  O  O7  1  0.74876395  0.85095559  0.16357030  1
  Se  Se8  1  0.50000000  0.74417481  0.99686944  1
  Se  Se9  1  0.00000000  0.87370602  0.61896861  1
  Se  Se10  1  0.50000000  0.25582519  0.49686944  1
  Se  Se11  1  0.00000000  0.12629398  0.11896861  1
