# generated using pymatgen
data_Te2Mo3WSe6
_symmetry_space_group_name_H-M   'P 1'
_cell_length_a   3.38731889
_cell_length_b   3.38731889
_cell_length_c   36.20555680
_cell_angle_alpha   90.00000000
_cell_angle_beta   90.00000000
_cell_angle_gamma   120.00000000
_symmetry_Int_Tables_number   1
_chemical_formula_structural   Te2Mo3WSe6
_chemical_formula_sum   'Te2 Mo3 W1 Se6'
_cell_volume   359.76427121
_cell_formula_units_Z   1
loop_
 _symmetry_equiv_pos_site_id
 _symmetry_equiv_pos_as_xyz
  1  'x, y, z'
loop_
 _atom_site_type_symbol
 _atom_site_label
 _atom_site_symmetry_multiplicity
 _atom_site_fract_x
 _atom_site_fract_y
 _atom_site_fract_z
 _atom_site_occupancy
  Mo  Mo0  1  0.33333333  0.66666667  0.09724791  1
  Mo  Mo1  1  0.66666667  0.33333333  0.27752641  1
  Mo  Mo2  1  0.66666667  0.33333333  0.65957578  1
  Se  Se3  1  0.33333333  0.66666667  0.32321662  1
  Se  Se4  1  0.33333333  0.66666667  0.70518762  1
  Se  Se5  1  0.66666667  0.33333333  0.05163314  1
  Se  Se6  1  0.66666667  0.33333333  0.14292217  1
  Se  Se7  1  0.33333333  0.66666667  0.23186159  1
  Se  Se8  1  0.33333333  0.66666667  0.61387787  1
  Te  Te9  1  0.66666667  0.33333333  0.41628322  1
  Te  Te10  1  0.66666667  0.33333333  0.52084852  1
  W  W11  1  0.33333333  0.66666667  0.46856716  1
