# generated using pymatgen
data_Te4MoW
_symmetry_space_group_name_H-M   'P 1'
_cell_length_a   3.56900777
_cell_length_b   3.56900777
_cell_length_c   38.03225696
_cell_angle_alpha   90.00000000
_cell_angle_beta   90.00000000
_cell_angle_gamma   120.00000000
_symmetry_Int_Tables_number   1
_chemical_formula_structural   Te4MoW
_chemical_formula_sum   'Te8 Mo2 W2'
_cell_volume   419.54419517
_cell_formula_units_Z   2
loop_
 _symmetry_equiv_pos_site_id
 _symmetry_equiv_pos_as_xyz
  1  'x, y, z'
loop_
 _atom_site_type_symbol
 _atom_site_label
 _atom_site_symmetry_multiplicity
 _atom_site_fract_x
 _atom_site_fract_y
 _atom_site_fract_z
 _atom_site_occupancy
  Mo  Mo0  1  0.00000000  0.00000000  0.09464188  1
  Mo  Mo1  1  0.33333333  0.66666667  0.28190233  1
  Te  Te2  1  0.00000000  0.00000000  0.32953607  1
  Te  Te3  1  0.00000000  0.00000000  0.70478381  1
  Te  Te4  1  0.33333333  0.66666667  0.04707408  1
  Te  Te5  1  0.33333333  0.66666667  0.42151497  1
  Te  Te6  1  0.33333333  0.66666667  0.14230099  1
  Te  Te7  1  0.33333333  0.66666667  0.51712096  1
  Te  Te8  1  0.00000000  0.00000000  0.23426077  1
  Te  Te9  1  0.00000000  0.00000000  0.60923722  1
  W  W10  1  0.00000000  0.00000000  0.46932153  1
  W  W11  1  0.33333333  0.66666667  0.65705239  1
