# generated using pymatgen
data_Cu2WSe4
_symmetry_space_group_name_H-M   'P 1'
_cell_length_a   6.71371541
_cell_length_b   6.71371541
_cell_length_c   6.71371541
_cell_angle_alpha   130.80704851
_cell_angle_beta   130.80704851
_cell_angle_gamma   72.11981827
_symmetry_Int_Tables_number   1
_chemical_formula_structural   Cu2WSe4
_chemical_formula_sum   'Cu2 W1 Se4'
_cell_volume   169.52438333
_cell_formula_units_Z   1
loop_
 _symmetry_equiv_pos_site_id
 _symmetry_equiv_pos_as_xyz
  1  'x, y, z'
loop_
 _atom_site_type_symbol
 _atom_site_label
 _atom_site_symmetry_multiplicity
 _atom_site_fract_x
 _atom_site_fract_y
 _atom_site_fract_z
 _atom_site_occupancy
  Cu  Cu0  1  0.00000000  0.50000000  0.50000000  1
  Cu  Cu1  1  0.50000000  0.00000000  0.50000000  1
  Se  Se2  1  0.89061627  0.37324089  0.00000000  1
  Se  Se3  1  0.37324089  0.89061627  0.00000000  1
  Se  Se4  1  0.62675911  0.62675911  0.51737539  1
  Se  Se5  1  0.10938373  0.10938373  0.48262461  1
  W  W6  1  0.00000000  0.00000000  0.00000000  1
