# generated using pymatgen
data_Sn2SeS
_symmetry_space_group_name_H-M   'P 1'
_cell_length_a   4.11970676
_cell_length_b   4.49167220
_cell_length_c   11.58474599
_cell_angle_alpha   90.00000000
_cell_angle_beta   90.00000000
_cell_angle_gamma   90.00000000
_symmetry_Int_Tables_number   1
_chemical_formula_structural   Sn2SeS
_chemical_formula_sum   'Sn4 Se2 S2'
_cell_volume   214.36845340
_cell_formula_units_Z   2
loop_
 _symmetry_equiv_pos_site_id
 _symmetry_equiv_pos_as_xyz
  1  'x, y, z'
loop_
 _atom_site_type_symbol
 _atom_site_label
 _atom_site_symmetry_multiplicity
 _atom_site_fract_x
 _atom_site_fract_y
 _atom_site_fract_z
 _atom_site_occupancy
  S  S0  1  0.50000000  0.72567374  0.64957250  1
  S  S1  1  0.50000000  0.27432626  0.14957250  1
  Se  Se2  1  0.00000000  0.77387425  0.35649153  1
  Se  Se3  1  0.00000000  0.22612575  0.85649153  1
  Sn  Sn4  1  0.00000000  0.10972202  0.61773519  1
  Sn  Sn5  1  0.00000000  0.89027798  0.11773519  1
  Sn  Sn6  1  0.50000000  0.35024222  0.37620178  1
  Sn  Sn7  1  0.50000000  0.64975778  0.87620178  1
