# generated using pymatgen
data_Te3W2Se
_symmetry_space_group_name_H-M   'P 1'
_cell_length_a   3.50551457
_cell_length_b   3.50551457
_cell_length_c   37.78707988
_cell_angle_alpha   90.00000000
_cell_angle_beta   90.00000000
_cell_angle_gamma   120.00000000
_symmetry_Int_Tables_number   1
_chemical_formula_structural   Te3W2Se
_chemical_formula_sum   'Te6 W4 Se2'
_cell_volume   402.14022452
_cell_formula_units_Z   2
loop_
 _symmetry_equiv_pos_site_id
 _symmetry_equiv_pos_as_xyz
  1  'x, y, z'
loop_
 _atom_site_type_symbol
 _atom_site_label
 _atom_site_symmetry_multiplicity
 _atom_site_fract_x
 _atom_site_fract_y
 _atom_site_fract_z
 _atom_site_occupancy
  Se  Se0  1  0.33333333  0.66666667  0.05437190  1
  Se  Se1  1  0.33333333  0.66666667  0.14016531  1
  Te  Te2  1  0.00000000  0.00000000  0.32650176  1
  Te  Te3  1  0.00000000  0.00000000  0.70801271  1
  Te  Te4  1  0.33333333  0.66666667  0.41984062  1
  Te  Te5  1  0.33333333  0.66666667  0.51733999  1
  Te  Te6  1  0.00000000  0.00000000  0.22901682  1
  Te  Te7  1  0.00000000  0.00000000  0.61058381  1
  W  W8  1  0.00000000  0.00000000  0.09722987  1
  W  W9  1  0.00000000  0.00000000  0.46859135  1
  W  W10  1  0.33333333  0.66666667  0.27775134  1
  W  W11  1  0.33333333  0.66666667  0.65934351  1
