# generated using pymatgen
data_KHS
_symmetry_space_group_name_H-M   'P 1'
_cell_length_a   4.29073263
_cell_length_b   4.29073263
_cell_length_c   4.29073263
_cell_angle_alpha   70.37201318
_cell_angle_beta   70.37201318
_cell_angle_gamma   70.37201318
_symmetry_Int_Tables_number   1
_chemical_formula_structural   KHS
_chemical_formula_sum   'K1 H1 S1'
_cell_volume   67.82899635
_cell_formula_units_Z   1
loop_
 _symmetry_equiv_pos_site_id
 _symmetry_equiv_pos_as_xyz
  1  'x, y, z'
loop_
 _atom_site_type_symbol
 _atom_site_label
 _atom_site_symmetry_multiplicity
 _atom_site_fract_x
 _atom_site_fract_y
 _atom_site_fract_z
 _atom_site_occupancy
  H  H0  1  0.64299901  0.64299901  0.64299901  1
  K  K1  1  0.00577489  0.00577489  0.00577489  1
  S  S2  1  0.50222610  0.50222610  0.50222610  1
