# generated using pymatgen
data_ZnCu2SnS4
_symmetry_space_group_name_H-M   'P 1'
_cell_length_a   6.69151885
_cell_length_b   6.69151885
_cell_length_c   6.69151885
_cell_angle_alpha   131.93203215
_cell_angle_beta   131.93203215
_cell_angle_gamma   70.33639592
_symmetry_Int_Tables_number   1
_chemical_formula_structural   ZnCu2SnS4
_chemical_formula_sum   'Zn1 Cu2 Sn1 S4'
_cell_volume   162.51218696
_cell_formula_units_Z   1
loop_
 _symmetry_equiv_pos_site_id
 _symmetry_equiv_pos_as_xyz
  1  'x, y, z'
loop_
 _atom_site_type_symbol
 _atom_site_label
 _atom_site_symmetry_multiplicity
 _atom_site_fract_x
 _atom_site_fract_y
 _atom_site_fract_z
 _atom_site_occupancy
  Cu  Cu0  1  0.25000000  0.75000000  0.50000000  1
  Cu  Cu1  1  0.75000000  0.25000000  0.50000000  1
  S  S2  1  0.37493949  0.89180613  -0.00000000  1
  S  S3  1  0.89180613  0.37493949  -0.00000000  1
  S  S4  1  0.10819387  0.10819387  0.48313336  1
  S  S5  1  0.62506051  0.62506051  0.51686664  1
  Sn  Sn6  1  0.50000000  0.50000000  0.00000000  1
  Zn  Zn7  1  0.00000000  0.00000000  0.00000000  1
