# generated using pymatgen
data_CaFeSO
_symmetry_space_group_name_H-M   'P 1'
_cell_length_a   3.76394401
_cell_length_b   3.76394401
_cell_length_c   11.09192177
_cell_angle_alpha   90.00000000
_cell_angle_beta   90.00000000
_cell_angle_gamma   120.00000000
_symmetry_Int_Tables_number   1
_chemical_formula_structural   CaFeSO
_chemical_formula_sum   'Ca2 Fe2 S2 O2'
_cell_volume   136.08922462
_cell_formula_units_Z   2
loop_
 _symmetry_equiv_pos_site_id
 _symmetry_equiv_pos_as_xyz
  1  'x, y, z'
loop_
 _atom_site_type_symbol
 _atom_site_label
 _atom_site_symmetry_multiplicity
 _atom_site_fract_x
 _atom_site_fract_y
 _atom_site_fract_z
 _atom_site_occupancy
  Ca  Ca0  1  0.33333333  0.66666667  0.79238760  1
  Ca  Ca1  1  0.66666667  0.33333333  0.29238760  1
  Fe  Fe2  1  0.00000000  0.00000000  0.05606878  1
  Fe  Fe3  1  0.00000000  0.00000000  0.55606878  1
  O  O4  1  0.00000000  0.00000000  0.22451268  1
  O  O5  1  0.00000000  0.00000000  0.72451268  1
  S  S6  1  0.66666667  0.33333333  0.97599094  1
  S  S7  1  0.33333333  0.66666667  0.47599094  1
