# generated using pymatgen
data_TeMoWSe3
_symmetry_space_group_name_H-M   'P 1'
_cell_length_a   3.38636210
_cell_length_b   3.38636210
_cell_length_c   36.19068959
_cell_angle_alpha   90.00000000
_cell_angle_beta   90.00000000
_cell_angle_gamma   120.00000000
_symmetry_Int_Tables_number   1
_chemical_formula_structural   TeMoWSe3
_chemical_formula_sum   'Te2 Mo2 W2 Se6'
_cell_volume   359.41341236
_cell_formula_units_Z   2
loop_
 _symmetry_equiv_pos_site_id
 _symmetry_equiv_pos_as_xyz
  1  'x, y, z'
loop_
 _atom_site_type_symbol
 _atom_site_label
 _atom_site_symmetry_multiplicity
 _atom_site_fract_x
 _atom_site_fract_y
 _atom_site_fract_z
 _atom_site_occupancy
  Mo  Mo0  1  0.00000000  0.00000000  0.09639878  1
  Mo  Mo1  1  0.33333333  0.66666667  0.66022497  1
  Se  Se2  1  0.00000000  0.00000000  0.32311486  1
  Se  Se3  1  0.00000000  0.00000000  0.70586416  1
  Se  Se4  1  0.33333333  0.66666667  0.05075427  1
  Se  Se5  1  0.33333333  0.66666667  0.14209742  1
  Se  Se6  1  0.00000000  0.00000000  0.23128027  1
  Se  Se7  1  0.00000000  0.00000000  0.61449653  1
  Te  Te8  1  0.33333333  0.66666667  0.41680131  1
  Te  Te9  1  0.33333333  0.66666667  0.52142124  1
  W  W10  1  0.00000000  0.00000000  0.46910998  1
  W  W11  1  0.33333333  0.66666667  0.27718521  1
