# generated using pymatgen
data_MoW3(Se3S)2
_symmetry_space_group_name_H-M   'P 1'
_cell_length_a   3.29331521
_cell_length_b   3.29331521
_cell_length_c   34.53129574
_cell_angle_alpha   90.00000000
_cell_angle_beta   90.00000000
_cell_angle_gamma   120.00000000
_symmetry_Int_Tables_number   1
_chemical_formula_structural   MoW3(Se3S)2
_chemical_formula_sum   'Mo1 W3 Se6 S2'
_cell_volume   324.34716561
_cell_formula_units_Z   1
loop_
 _symmetry_equiv_pos_site_id
 _symmetry_equiv_pos_as_xyz
  1  'x, y, z'
loop_
 _atom_site_type_symbol
 _atom_site_label
 _atom_site_symmetry_multiplicity
 _atom_site_fract_x
 _atom_site_fract_y
 _atom_site_fract_z
 _atom_site_occupancy
  Mo  Mo0  1  0.66666667  0.33333333  0.28134070  1
  S  S1  1  0.33333333  0.66666667  0.32579616  1
  S  S2  1  0.33333333  0.66666667  0.23688043  1
  Se  Se3  1  0.33333333  0.66666667  0.70785800  1
  Se  Se4  1  0.66666667  0.33333333  0.04730734  1
  Se  Se5  1  0.66666667  0.33333333  0.41733313  1
  Se  Se6  1  0.66666667  0.33333333  0.14542697  1
  Se  Se7  1  0.66666667  0.33333333  0.51549464  1
  Se  Se8  1  0.33333333  0.66666667  0.60973230  1
  W  W9  1  0.33333333  0.66666667  0.09634222  1
  W  W10  1  0.33333333  0.66666667  0.46641086  1
  W  W11  1  0.66666667  0.33333333  0.65882625  1
