# generated using pymatgen
data_K2SnHgTe4
_symmetry_space_group_name_H-M   'P 1'
_cell_length_a   7.13200498
_cell_length_b   7.13200498
_cell_length_c   7.13200498
_cell_angle_alpha   105.64795120
_cell_angle_beta   105.64795120
_cell_angle_gamma   117.42250000
_symmetry_Int_Tables_number   1
_chemical_formula_structural   K2SnHgTe4
_chemical_formula_sum   'K2 Sn1 Hg1 Te4'
_cell_volume   275.17698773
_cell_formula_units_Z   1
loop_
 _symmetry_equiv_pos_site_id
 _symmetry_equiv_pos_as_xyz
  1  'x, y, z'
loop_
 _atom_site_type_symbol
 _atom_site_label
 _atom_site_symmetry_multiplicity
 _atom_site_fract_x
 _atom_site_fract_y
 _atom_site_fract_z
 _atom_site_occupancy
  Hg  Hg0  1  0.50000000  0.50000000  0.00000000  1
  K  K1  1  0.00000000  0.50000000  0.50000000  1
  K  K2  1  0.50000000  0.00000000  0.50000000  1
  Sn  Sn3  1  0.00000000  0.00000000  0.00000000  1
  Te  Te4  1  0.41858846  0.05753772  -0.00000000  1
  Te  Te5  1  0.05753772  0.41858846  -0.00000000  1
  Te  Te6  1  0.58141154  0.58141154  0.63894926  1
  Te  Te7  1  0.94246228  0.94246228  0.36105074  1
