# generated using pymatgen
data_BaCdSe
_symmetry_space_group_name_H-M   'P 1'
_cell_length_a   4.78667984
_cell_length_b   7.00999195
_cell_length_c   7.00999195
_cell_angle_alpha   37.43132713
_cell_angle_beta   90.00000000
_cell_angle_gamma   90.00000000
_symmetry_Int_Tables_number   1
_chemical_formula_structural   BaCdSe
_chemical_formula_sum   'Ba1 Cd1 Se1'
_cell_volume   142.96750377
_cell_formula_units_Z   1
loop_
 _symmetry_equiv_pos_site_id
 _symmetry_equiv_pos_as_xyz
  1  'x, y, z'
loop_
 _atom_site_type_symbol
 _atom_site_label
 _atom_site_symmetry_multiplicity
 _atom_site_fract_x
 _atom_site_fract_y
 _atom_site_fract_z
 _atom_site_occupancy
  Ba  Ba0  1  0.00000000  0.03039380  0.03039380  1
  Cd  Cd1  1  0.00000000  0.32603055  0.32603055  1
  Se  Se2  1  0.00000000  0.69038746  0.69038746  1
