# generated using pymatgen
data_MoWSeS3
_symmetry_space_group_name_H-M   'P 1'
_cell_length_a   3.22537931
_cell_length_b   3.22537931
_cell_length_c   33.07127825
_cell_angle_alpha   90.00000000
_cell_angle_beta   90.00000000
_cell_angle_gamma   120.00000000
_symmetry_Int_Tables_number   1
_chemical_formula_structural   MoWSeS3
_chemical_formula_sum   'Mo2 W2 Se2 S6'
_cell_volume   297.94987297
_cell_formula_units_Z   2
loop_
 _symmetry_equiv_pos_site_id
 _symmetry_equiv_pos_as_xyz
  1  'x, y, z'
loop_
 _atom_site_type_symbol
 _atom_site_label
 _atom_site_symmetry_multiplicity
 _atom_site_fract_x
 _atom_site_fract_y
 _atom_site_fract_z
 _atom_site_occupancy
  Mo  Mo0  1  0.00000000  0.00000000  0.09188700  1
  Mo  Mo1  1  0.00000000  0.00000000  0.46822393  1
  S  S2  1  0.00000000  0.00000000  0.32757887  1
  S  S3  1  0.33333333  0.66666667  0.04485673  1
  S  S4  1  0.33333333  0.66666667  0.42117234  1
  S  S5  1  0.33333333  0.66666667  0.13895207  1
  S  S6  1  0.33333333  0.66666667  0.51529736  1
  S  S7  1  0.00000000  0.00000000  0.23294156  1
  Se  Se8  1  0.00000000  0.00000000  0.71456274  1
  Se  Se9  1  0.00000000  0.00000000  0.61047037  1
  W  W10  1  0.33333333  0.66666667  0.28026765  1
  W  W11  1  0.33333333  0.66666667  0.66253937  1
