# generated using pymatgen
data_TeMoSe
_symmetry_space_group_name_H-M   'P 1'
_cell_length_a   3.44443486
_cell_length_b   3.44443486
_cell_length_c   36.56947904
_cell_angle_alpha   90.00000000
_cell_angle_beta   90.00000000
_cell_angle_gamma   120.00000000
_symmetry_Int_Tables_number   1
_chemical_formula_structural   TeMoSe
_chemical_formula_sum   'Te4 Mo4 Se4'
_cell_volume   375.73820461
_cell_formula_units_Z   4
loop_
 _symmetry_equiv_pos_site_id
 _symmetry_equiv_pos_as_xyz
  1  'x, y, z'
loop_
 _atom_site_type_symbol
 _atom_site_label
 _atom_site_symmetry_multiplicity
 _atom_site_fract_x
 _atom_site_fract_y
 _atom_site_fract_z
 _atom_site_occupancy
  Mo  Mo0  1  0.33333333  0.66666667  0.09464589  1
  Mo  Mo1  1  0.33333333  0.66666667  0.46939260  1
  Mo  Mo2  1  0.66666667  0.33333333  0.28202650  1
  Mo  Mo3  1  0.66666667  0.33333333  0.65684841  1
  Se  Se4  1  0.66666667  0.33333333  0.04998327  1
  Se  Se5  1  0.66666667  0.33333333  0.42465193  1
  Se  Se6  1  0.66666667  0.33333333  0.13940114  1
  Se  Se7  1  0.66666667  0.33333333  0.51413204  1
  Te  Te8  1  0.33333333  0.66666667  0.33286512  1
  Te  Te9  1  0.33333333  0.66666667  0.70762225  1
  Te  Te10  1  0.33333333  0.66666667  0.23118962  1
  Te  Te11  1  0.33333333  0.66666667  0.60599023  1
