# generated using pymatgen
data_BaS3
_symmetry_space_group_name_H-M   'P 1'
_cell_length_a   6.93349463
_cell_length_b   6.93349463
_cell_length_c   4.18134363
_cell_angle_alpha   90.00000000
_cell_angle_beta   90.00000000
_cell_angle_gamma   90.00000000
_symmetry_Int_Tables_number   1
_chemical_formula_structural   BaS3
_chemical_formula_sum   'Ba2 S6'
_cell_volume   201.01118637
_cell_formula_units_Z   2
loop_
 _symmetry_equiv_pos_site_id
 _symmetry_equiv_pos_as_xyz
  1  'x, y, z'
loop_
 _atom_site_type_symbol
 _atom_site_label
 _atom_site_symmetry_multiplicity
 _atom_site_fract_x
 _atom_site_fract_y
 _atom_site_fract_z
 _atom_site_occupancy
  Ba  Ba0  1  0.50000000  0.50000000  0.00000000  1
  Ba  Ba1  1  0.00000000  0.00000000  0.00000000  1
  S  S2  1  0.82010607  0.67989393  0.47858279  1
  S  S3  1  0.32010607  0.82010607  0.52141721  1
  S  S4  1  0.00000000  0.50000000  0.20670515  1
  S  S5  1  0.50000000  0.00000000  0.79329485  1
  S  S6  1  0.17989393  0.32010607  0.47858279  1
  S  S7  1  0.67989393  0.17989393  0.52141721  1
