# generated using pymatgen
data_Zn2GaAgSe4
_symmetry_space_group_name_H-M   'P 1'
_cell_length_a   7.01725529
_cell_length_b   7.01725529
_cell_length_c   7.01725529
_cell_angle_alpha   130.61959395
_cell_angle_beta   130.61959395
_cell_angle_gamma   72.41816553
_symmetry_Int_Tables_number   1
_chemical_formula_structural   Zn2GaAgSe4
_chemical_formula_sum   'Zn2 Ga1 Ag1 Se4'
_cell_volume   194.58839063
_cell_formula_units_Z   1
loop_
 _symmetry_equiv_pos_site_id
 _symmetry_equiv_pos_as_xyz
  1  'x, y, z'
loop_
 _atom_site_type_symbol
 _atom_site_label
 _atom_site_symmetry_multiplicity
 _atom_site_fract_x
 _atom_site_fract_y
 _atom_site_fract_z
 _atom_site_occupancy
  Ag  Ag0  1  0.50000000  0.50000000  0.00000000  1
  Ga  Ga1  1  0.00000000  0.00000000  0.00000000  1
  Se  Se2  1  0.10751917  0.63504221  0.00000000  1
  Se  Se3  1  0.63504221  0.10751917  0.00000000  1
  Se  Se4  1  0.89248083  0.89248083  0.52752304  1
  Se  Se5  1  0.36495779  0.36495779  0.47247696  1
  Zn  Zn6  1  0.25000000  0.75000000  0.50000000  1
  Zn  Zn7  1  0.75000000  0.25000000  0.50000000  1
