# generated using pymatgen
data_Sm2PbSe4
_symmetry_space_group_name_H-M   'P 1'
_cell_length_a   7.76139083
_cell_length_b   7.76139083
_cell_length_c   7.76139083
_cell_angle_alpha   109.37812780
_cell_angle_beta   109.37812780
_cell_angle_gamma   109.65756716
_symmetry_Int_Tables_number   1
_chemical_formula_structural   Sm2PbSe4
_chemical_formula_sum   'Sm4 Pb2 Se8'
_cell_volume   359.90951037
_cell_formula_units_Z   2
loop_
 _symmetry_equiv_pos_site_id
 _symmetry_equiv_pos_as_xyz
  1  'x, y, z'
loop_
 _atom_site_type_symbol
 _atom_site_label
 _atom_site_symmetry_multiplicity
 _atom_site_fract_x
 _atom_site_fract_y
 _atom_site_fract_z
 _atom_site_occupancy
  Pb  Pb0  1  0.75000000  0.25000000  0.50000000  1
  Pb  Pb1  1  0.00000000  0.00000000  0.00000000  1
  Se  Se2  1  0.13477610  0.73330337  0.74750836  1
  Se  Se3  1  0.26669663  0.01420498  0.40147273  1
  Se  Se4  1  0.61273225  0.86522390  0.59852727  1
  Se  Se5  1  0.48330337  0.38477610  0.24750836  1
  Se  Se6  1  0.76420498  0.51669663  0.90147273  1
  Se  Se7  1  0.61522390  0.86273225  0.09852727  1
  Se  Se8  1  0.98579502  0.38726775  0.25249164  1
  Se  Se9  1  0.13726775  0.23579502  0.75249164  1
  Sm  Sm10  1  0.24200025  0.62500000  0.11700025  1
  Sm  Sm11  1  0.37500000  0.49200025  0.61700025  1
  Sm  Sm12  1  0.50799975  0.12500000  0.88299975  1
  Sm  Sm13  1  0.87500000  0.75799975  0.38299975  1
