# generated using pymatgen
data_SnPbS2
_symmetry_space_group_name_H-M   'P 1'
_cell_length_a   4.12445761
_cell_length_b   4.33328593
_cell_length_c   11.63050965
_cell_angle_alpha   90.00000000
_cell_angle_beta   90.00000000
_cell_angle_gamma   90.00000000
_symmetry_Int_Tables_number   1
_chemical_formula_structural   SnPbS2
_chemical_formula_sum   'Sn2 Pb2 S4'
_cell_volume   207.86575040
_cell_formula_units_Z   2
loop_
 _symmetry_equiv_pos_site_id
 _symmetry_equiv_pos_as_xyz
  1  'x, y, z'
loop_
 _atom_site_type_symbol
 _atom_site_label
 _atom_site_symmetry_multiplicity
 _atom_site_fract_x
 _atom_site_fract_y
 _atom_site_fract_z
 _atom_site_occupancy
  Pb  Pb0  1  0.00000000  0.12741878  0.61704816  1
  Pb  Pb1  1  0.00000000  0.87258122  0.11704816  1
  S  S2  1  0.00000000  0.21588122  0.85837139  1
  S  S3  1  0.00000000  0.78411878  0.35837139  1
  S  S4  1  0.50000000  0.31195586  0.15103892  1
  S  S5  1  0.50000000  0.68804414  0.65103892  1
  Sn  Sn6  1  0.50000000  0.38189180  0.37354253  1
  Sn  Sn7  1  0.50000000  0.61810820  0.87354253  1
