# generated using pymatgen
data_InCuS2
_symmetry_space_group_name_H-M   'P 1'
_cell_length_a   6.56318761
_cell_length_b   6.56318761
_cell_length_c   6.56318761
_cell_angle_alpha   34.35632852
_cell_angle_beta   34.35632852
_cell_angle_gamma   34.35632852
_symmetry_Int_Tables_number   1
_chemical_formula_structural   InCuS2
_chemical_formula_sum   'In1 Cu1 S2'
_cell_volume   80.30502307
_cell_formula_units_Z   1
loop_
 _symmetry_equiv_pos_site_id
 _symmetry_equiv_pos_as_xyz
  1  'x, y, z'
loop_
 _atom_site_type_symbol
 _atom_site_label
 _atom_site_symmetry_multiplicity
 _atom_site_fract_x
 _atom_site_fract_y
 _atom_site_fract_z
 _atom_site_occupancy
  Cu  Cu0  1  0.13680041  0.13680041  0.13680041  1
  In  In1  1  0.99576320  0.99576320  0.99576320  1
  S  S2  1  0.26054532  0.26054532  0.26054532  1
  S  S3  1  0.75988973  0.75988973  0.75988973  1
