# generated using pymatgen
data_Cu3TeS3Cl
_symmetry_space_group_name_H-M   'P 1'
_cell_length_a   5.47920930
_cell_length_b   5.47920930
_cell_length_c   5.47920930
_cell_angle_alpha   85.06779254
_cell_angle_beta   85.06779254
_cell_angle_gamma   85.06779254
_symmetry_Int_Tables_number   1
_chemical_formula_structural   Cu3TeS3Cl
_chemical_formula_sum   'Cu3 Te1 S3 Cl1'
_cell_volume   162.76689568
_cell_formula_units_Z   1
loop_
 _symmetry_equiv_pos_site_id
 _symmetry_equiv_pos_as_xyz
  1  'x, y, z'
loop_
 _atom_site_type_symbol
 _atom_site_label
 _atom_site_symmetry_multiplicity
 _atom_site_fract_x
 _atom_site_fract_y
 _atom_site_fract_z
 _atom_site_occupancy
  Cl  Cl0  1  0.43231021  0.43231021  0.43231021  1
  Cu  Cu1  1  0.22982554  0.80426786  0.22982554  1
  Cu  Cu2  1  0.22982554  0.22982554  0.80426786  1
  Cu  Cu3  1  0.80426786  0.22982554  0.22982554  1
  S  S4  1  0.52944793  0.02831252  0.02831252  1
  S  S5  1  0.02831252  0.02831252  0.52944793  1
  S  S6  1  0.02831252  0.52944793  0.02831252  1
  Te  Te7  1  0.74502889  0.74502889  0.74502889  1
