# generated using pymatgen
data_Sm2MgSe4
_symmetry_space_group_name_H-M   'P 1'
_cell_length_a   7.61094281
_cell_length_b   7.61094281
_cell_length_c   7.61094281
_cell_angle_alpha   110.97706198
_cell_angle_beta   110.97706198
_cell_angle_gamma   106.49978010
_symmetry_Int_Tables_number   1
_chemical_formula_structural   Sm2MgSe4
_chemical_formula_sum   'Sm4 Mg2 Se8'
_cell_volume   338.70555601
_cell_formula_units_Z   2
loop_
 _symmetry_equiv_pos_site_id
 _symmetry_equiv_pos_as_xyz
  1  'x, y, z'
loop_
 _atom_site_type_symbol
 _atom_site_label
 _atom_site_symmetry_multiplicity
 _atom_site_fract_x
 _atom_site_fract_y
 _atom_site_fract_z
 _atom_site_occupancy
  Mg  Mg0  1  0.75000000  0.25000000  0.50000000  1
  Mg  Mg1  1  0.00000000  0.00000000  0.00000000  1
  Se  Se2  1  0.63812545  0.87365171  0.62885524  1
  Se  Se3  1  0.12634829  0.75520353  0.76447374  1
  Se  Se4  1  0.24479647  0.00927021  0.37114476  1
  Se  Se5  1  0.99072979  0.36187455  0.23552626  1
  Se  Se6  1  0.11187455  0.24072979  0.73552626  1
  Se  Se7  1  0.62365171  0.88812545  0.12885524  1
  Se  Se8  1  0.50520353  0.37634829  0.26447374  1
  Se  Se9  1  0.75927021  0.49479647  0.87114476  1
  Sm  Sm10  1  0.37500000  0.50058565  0.62558565  1
  Sm  Sm11  1  0.49941435  0.12500000  0.87441435  1
  Sm  Sm12  1  0.87500000  0.74941435  0.37441435  1
  Sm  Sm13  1  0.25058565  0.62500000  0.12558565  1
