# generated using pymatgen
data_Tl3AsS3
_symmetry_space_group_name_H-M   'P 1'
_cell_length_a   6.07190296
_cell_length_b   6.07190296
_cell_length_c   6.07190296
_cell_angle_alpha   105.87037720
_cell_angle_beta   105.87037720
_cell_angle_gamma   105.87037720
_symmetry_Int_Tables_number   1
_chemical_formula_structural   Tl3AsS3
_chemical_formula_sum   'Tl3 As1 S3'
_cell_volume   191.88720526
_cell_formula_units_Z   1
loop_
 _symmetry_equiv_pos_site_id
 _symmetry_equiv_pos_as_xyz
  1  'x, y, z'
loop_
 _atom_site_type_symbol
 _atom_site_label
 _atom_site_symmetry_multiplicity
 _atom_site_fract_x
 _atom_site_fract_y
 _atom_site_fract_z
 _atom_site_occupancy
  As  As0  1  0.44694494  0.44694494  0.44694494  1
  S  S1  1  0.05973266  0.42779443  0.42779443  1
  S  S2  1  0.42779443  0.42779443  0.05973266  1
  S  S3  1  0.42779443  0.05973266  0.42779443  1
  Tl  Tl4  1  0.61210952  0.00031151  0.00031151  1
  Tl  Tl5  1  0.00031151  0.00031151  0.61210952  1
  Tl  Tl6  1  0.00031151  0.61210952  0.00031151  1
