# generated using pymatgen
data_Sr(PrSe2)2
_symmetry_space_group_name_H-M   'P 1'
_cell_length_a   7.86027234
_cell_length_b   7.86027234
_cell_length_c   7.86027234
_cell_angle_alpha   109.44973687
_cell_angle_beta   109.44973687
_cell_angle_gamma   109.51419671
_symmetry_Int_Tables_number   1
_chemical_formula_structural   Sr(PrSe2)2
_chemical_formula_sum   'Sr2 Pr4 Se8'
_cell_volume   373.84425184
_cell_formula_units_Z   2
loop_
 _symmetry_equiv_pos_site_id
 _symmetry_equiv_pos_as_xyz
  1  'x, y, z'
loop_
 _atom_site_type_symbol
 _atom_site_label
 _atom_site_symmetry_multiplicity
 _atom_site_fract_x
 _atom_site_fract_y
 _atom_site_fract_z
 _atom_site_occupancy
  Pr  Pr0  1  0.37500000  0.99788624  0.12288624  1
  Pr  Pr1  1  0.74788624  0.62500000  0.62288624  1
  Pr  Pr2  1  0.87500000  0.25211376  0.87711376  1
  Pr  Pr3  1  0.00211376  0.12500000  0.37711376  1
  Se  Se4  1  0.27018339  0.36778953  0.24960511  1
  Se  Se5  1  0.63181558  0.88221047  0.40239386  1
  Se  Se6  1  0.47981661  0.22942172  0.59760614  1
  Se  Se7  1  0.63221047  0.88181558  0.90239386  1
  Se  Se8  1  0.77057828  0.36818442  0.25039489  1
  Se  Se9  1  0.11778953  0.52018339  0.74960511  1
  Se  Se10  1  0.97942172  0.72981661  0.09760614  1
  Se  Se11  1  0.11818442  0.02057828  0.75039489  1
  Sr  Sr12  1  0.25000000  0.75000000  0.50000000  1
  Sr  Sr13  1  0.50000000  0.50000000  0.00000000  1
