# generated using pymatgen
data_TiS2
_symmetry_space_group_name_H-M   'P 1'
_cell_length_a   6.35400851
_cell_length_b   6.35400851
_cell_length_c   6.35400851
_cell_angle_alpha   129.54631289
_cell_angle_beta   129.54631289
_cell_angle_gamma   74.13310708
_symmetry_Int_Tables_number   1
_chemical_formula_structural   TiS2
_chemical_formula_sum   'Ti2 S4'
_cell_volume   148.73210328
_cell_formula_units_Z   2
loop_
 _symmetry_equiv_pos_site_id
 _symmetry_equiv_pos_as_xyz
  1  'x, y, z'
loop_
 _atom_site_type_symbol
 _atom_site_label
 _atom_site_symmetry_multiplicity
 _atom_site_fract_x
 _atom_site_fract_y
 _atom_site_fract_z
 _atom_site_occupancy
  S  S0  1  0.87500000  0.88058231  0.50558231  1
  S  S1  1  0.11941769  0.62500000  0.99441769  1
  S  S2  1  0.37500000  0.36941769  0.49441769  1
  S  S3  1  0.63058231  0.12500000  0.00558231  1
  Ti  Ti4  1  0.75000000  0.25000000  0.50000000  1
  Ti  Ti5  1  0.00000000  0.00000000  0.00000000  1
