# generated using pymatgen
data_RbS3F
_symmetry_space_group_name_H-M   'P 1'
_cell_length_a   4.81971951
_cell_length_b   4.81971951
_cell_length_c   4.81971951
_cell_angle_alpha   86.27873771
_cell_angle_beta   86.27873771
_cell_angle_gamma   86.27873771
_symmetry_Int_Tables_number   1
_chemical_formula_structural   RbS3F
_chemical_formula_sum   'Rb1 S3 F1'
_cell_volume   111.28174478
_cell_formula_units_Z   1
loop_
 _symmetry_equiv_pos_site_id
 _symmetry_equiv_pos_as_xyz
  1  'x, y, z'
loop_
 _atom_site_type_symbol
 _atom_site_label
 _atom_site_symmetry_multiplicity
 _atom_site_fract_x
 _atom_site_fract_y
 _atom_site_fract_z
 _atom_site_occupancy
  F  F0  1  0.57583266  0.57583266  0.57583266  1
  Rb  Rb1  1  0.86451677  0.86451677  0.86451677  1
  S  S2  1  0.01174221  0.33596009  0.33596009  1
  S  S3  1  0.33596009  0.01174221  0.33596009  1
  S  S4  1  0.33596009  0.33596009  0.01174221  1
