# generated using pymatgen
data_Sr(NdS2)2
_symmetry_space_group_name_H-M   'P 1'
_cell_length_a   7.51470881
_cell_length_b   7.51470881
_cell_length_c   7.51470881
_cell_angle_alpha   109.42826536
_cell_angle_beta   109.42826536
_cell_angle_gamma   109.55716538
_symmetry_Int_Tables_number   1
_chemical_formula_structural   Sr(NdS2)2
_chemical_formula_sum   'Sr2 Nd4 S8'
_cell_volume   326.67345576
_cell_formula_units_Z   2
loop_
 _symmetry_equiv_pos_site_id
 _symmetry_equiv_pos_as_xyz
  1  'x, y, z'
loop_
 _atom_site_type_symbol
 _atom_site_label
 _atom_site_symmetry_multiplicity
 _atom_site_fract_x
 _atom_site_fract_y
 _atom_site_fract_z
 _atom_site_occupancy
  Nd  Nd0  1  0.87500000  0.49752572  0.12252572  1
  Nd  Nd1  1  0.24752572  0.12500000  0.62252572  1
  Nd  Nd2  1  0.37500000  0.75247428  0.87747428  1
  Nd  Nd3  1  0.50247428  0.62500000  0.37747428  1
  S  S4  1  0.61572135  0.01845650  0.74906434  1
  S  S5  1  0.13427865  0.38334298  0.90273515  1
  S  S6  1  0.76845650  0.86572135  0.24906434  1
  S  S7  1  0.98154350  0.73060784  0.59726485  1
  S  S8  1  0.26939216  0.86665702  0.25093566  1
  S  S9  1  0.13334298  0.38427865  0.40273515  1
  S  S10  1  0.48060784  0.23154350  0.09726485  1
  S  S11  1  0.61665702  0.51939216  0.75093566  1
  Sr  Sr12  1  0.75000000  0.25000000  0.50000000  1
  Sr  Sr13  1  0.00000000  0.00000000  0.00000000  1
