# generated using pymatgen
data_LuCuS2
_symmetry_space_group_name_H-M   'P 1'
_cell_length_a   3.84907768
_cell_length_b   3.84907768
_cell_length_c   6.08732191
_cell_angle_alpha   90.00000000
_cell_angle_beta   90.00000000
_cell_angle_gamma   120.00000000
_symmetry_Int_Tables_number   1
_chemical_formula_structural   LuCuS2
_chemical_formula_sum   'Lu1 Cu1 S2'
_cell_volume   78.10345613
_cell_formula_units_Z   1
loop_
 _symmetry_equiv_pos_site_id
 _symmetry_equiv_pos_as_xyz
  1  'x, y, z'
loop_
 _atom_site_type_symbol
 _atom_site_label
 _atom_site_symmetry_multiplicity
 _atom_site_fract_x
 _atom_site_fract_y
 _atom_site_fract_z
 _atom_site_occupancy
  Cu  Cu0  1  0.66666667  0.33333333  0.60181349  1
  Lu  Lu1  1  0.00000000  0.00000000  0.99685700  1
  S  S2  1  0.66666667  0.33333333  0.22532877  1
  S  S3  1  0.33333333  0.66666667  0.73300073  1
