# generated using pymatgen
data_MoSeS
_symmetry_space_group_name_H-M   'P 1'
_cell_length_a   3.25679612
_cell_length_b   3.25679612
_cell_length_c   34.23591612
_cell_angle_alpha   90.00000000
_cell_angle_beta   90.00000000
_cell_angle_gamma   120.00000000
_symmetry_Int_Tables_number   1
_chemical_formula_structural   MoSeS
_chemical_formula_sum   'Mo4 Se4 S4'
_cell_volume   314.48050613
_cell_formula_units_Z   4
loop_
 _symmetry_equiv_pos_site_id
 _symmetry_equiv_pos_as_xyz
  1  'x, y, z'
loop_
 _atom_site_type_symbol
 _atom_site_label
 _atom_site_symmetry_multiplicity
 _atom_site_fract_x
 _atom_site_fract_y
 _atom_site_fract_z
 _atom_site_occupancy
  Mo  Mo0  1  0.00000000  0.00000000  0.09481228  1
  Mo  Mo1  1  0.00000000  0.00000000  0.46935460  1
  Mo  Mo2  1  0.33333333  0.66666667  0.28207878  1
  Mo  Mo3  1  0.33333333  0.66666667  0.65666670  1
  S  S4  1  0.33333333  0.66666667  0.04969227  1
  S  S5  1  0.33333333  0.66666667  0.42418355  1
  S  S6  1  0.33333333  0.66666667  0.13999329  1
  S  S7  1  0.33333333  0.66666667  0.51452652  1
  Se  Se8  1  0.00000000  0.00000000  0.33168498  1
  Se  Se9  1  0.00000000  0.00000000  0.70622924  1
  Se  Se10  1  0.00000000  0.00000000  0.23247434  1
  Se  Se11  1  0.00000000  0.00000000  0.60705244  1
