# generated using pymatgen
data_MoWSe3S
_symmetry_space_group_name_H-M   'P 1'
_cell_length_a   3.29112343
_cell_length_b   3.29112343
_cell_length_c   34.38889772
_cell_angle_alpha   90.00000000
_cell_angle_beta   90.00000000
_cell_angle_gamma   120.00000000
_symmetry_Int_Tables_number   1
_chemical_formula_structural   MoWSe3S
_chemical_formula_sum   'Mo2 W2 Se6 S2'
_cell_volume   322.57984451
_cell_formula_units_Z   2
loop_
 _symmetry_equiv_pos_site_id
 _symmetry_equiv_pos_as_xyz
  1  'x, y, z'
loop_
 _atom_site_type_symbol
 _atom_site_label
 _atom_site_symmetry_multiplicity
 _atom_site_fract_x
 _atom_site_fract_y
 _atom_site_fract_z
 _atom_site_occupancy
  Mo  Mo0  1  0.66666667  0.33333333  0.09167146  1
  Mo  Mo1  1  0.00000000  0.00000000  0.28418342  1
  S  S2  1  0.00000000  0.00000000  0.42543629  1
  S  S3  1  0.00000000  0.00000000  0.51516155  1
  Se  Se4  1  0.66666667  0.33333333  0.33319954  1
  Se  Se5  1  0.66666667  0.33333333  0.70602503  1
  Se  Se6  1  0.00000000  0.00000000  0.04269286  1
  Se  Se7  1  0.00000000  0.00000000  0.14071554  1
  Se  Se8  1  0.66666667  0.33333333  0.23514990  1
  Se  Se9  1  0.66666667  0.33333333  0.60744855  1
  W  W10  1  0.66666667  0.33333333  0.47030019  1
  W  W11  1  0.00000000  0.00000000  0.65676066  1
