# generated using pymatgen
data_BeSe
_symmetry_space_group_name_H-M   'P 1'
_cell_length_a   3.64722176
_cell_length_b   3.64722176
_cell_length_c   6.02306377
_cell_angle_alpha   90.00000000
_cell_angle_beta   90.00000000
_cell_angle_gamma   120.00000000
_symmetry_Int_Tables_number   1
_chemical_formula_structural   BeSe
_chemical_formula_sum   'Be2 Se2'
_cell_volume   69.38609314
_cell_formula_units_Z   2
loop_
 _symmetry_equiv_pos_site_id
 _symmetry_equiv_pos_as_xyz
  1  'x, y, z'
loop_
 _atom_site_type_symbol
 _atom_site_label
 _atom_site_symmetry_multiplicity
 _atom_site_fract_x
 _atom_site_fract_y
 _atom_site_fract_z
 _atom_site_occupancy
  Be  Be0  1  0.66666667  0.33333333  0.15944758  1
  Be  Be1  1  0.33333333  0.66666667  0.65944758  1
  Se  Se2  1  0.66666667  0.33333333  0.78595872  1
  Se  Se3  1  0.33333333  0.66666667  0.28595872  1
