# generated using pymatgen
data_Mo2Se3S
_symmetry_space_group_name_H-M   'P 1'
_cell_length_a   3.29168032
_cell_length_b   3.29168032
_cell_length_c   34.92562120
_cell_angle_alpha   90.00000000
_cell_angle_beta   90.00000000
_cell_angle_gamma   120.00000000
_symmetry_Int_Tables_number   1
_chemical_formula_structural   Mo2Se3S
_chemical_formula_sum   'Mo4 Se6 S2'
_cell_volume   327.72537860
_cell_formula_units_Z   2
loop_
 _symmetry_equiv_pos_site_id
 _symmetry_equiv_pos_as_xyz
  1  'x, y, z'
loop_
 _atom_site_type_symbol
 _atom_site_label
 _atom_site_symmetry_multiplicity
 _atom_site_fract_x
 _atom_site_fract_y
 _atom_site_fract_z
 _atom_site_occupancy
  Mo  Mo0  1  0.00000000  0.00000000  0.09662401  1
  Mo  Mo1  1  0.00000000  0.00000000  0.46876701  1
  Mo  Mo2  1  0.33333333  0.66666667  0.27927457  1
  Mo  Mo3  1  0.33333333  0.66666667  0.65824906  1
  S  S4  1  0.33333333  0.66666667  0.05269627  1
  S  S5  1  0.33333333  0.66666667  0.14060652  1
  Se  Se6  1  0.00000000  0.00000000  0.32754895  1
  Se  Se7  1  0.00000000  0.00000000  0.70646979  1
  Se  Se8  1  0.33333333  0.66666667  0.42049327  1
  Se  Se9  1  0.33333333  0.66666667  0.51704063  1
  Se  Se10  1  0.00000000  0.00000000  0.23101406  1
  Se  Se11  1  0.00000000  0.00000000  0.60996585  1
