# generated using pymatgen
data_AlCuS2
_symmetry_space_group_name_H-M   'P 1'
_cell_length_a   6.47573492
_cell_length_b   6.47573492
_cell_length_c   6.47573492
_cell_angle_alpha   131.38715777
_cell_angle_beta   131.38715777
_cell_angle_gamma   71.19868397
_symmetry_Int_Tables_number   1
_chemical_formula_structural   AlCuS2
_chemical_formula_sum   'Al2 Cu2 S4'
_cell_volume   149.64446643
_cell_formula_units_Z   2
loop_
 _symmetry_equiv_pos_site_id
 _symmetry_equiv_pos_as_xyz
  1  'x, y, z'
loop_
 _atom_site_type_symbol
 _atom_site_label
 _atom_site_symmetry_multiplicity
 _atom_site_fract_x
 _atom_site_fract_y
 _atom_site_fract_z
 _atom_site_occupancy
  Al  Al0  1  0.50000000  0.50000000  0.00000000  1
  Al  Al1  1  0.25000000  0.75000000  0.50000000  1
  Cu  Cu2  1  0.75000000  0.25000000  0.50000000  1
  Cu  Cu3  1  0.00000000  0.00000000  0.00000000  1
  S  S4  1  0.87500000  0.86668936  0.49168936  1
  S  S5  1  0.13331064  0.62500000  0.00831064  1
  S  S6  1  0.37500000  0.38331064  0.50831064  1
  S  S7  1  0.61668936  0.12500000  0.99168936  1
