# generated using pymatgen
data_NbS2
_symmetry_space_group_name_H-M   'P 1'
_cell_length_a   11.52607488
_cell_length_b   3.36437874
_cell_length_c   11.27789155
_cell_angle_alpha   85.72299473
_cell_angle_beta   16.92262280
_cell_angle_gamma   77.35438247
_symmetry_Int_Tables_number   1
_chemical_formula_structural   NbS2
_chemical_formula_sum   'Nb1 S2'
_cell_volume   109.31546015
_cell_formula_units_Z   1
loop_
 _symmetry_equiv_pos_site_id
 _symmetry_equiv_pos_as_xyz
  1  'x, y, z'
loop_
 _atom_site_type_symbol
 _atom_site_label
 _atom_site_symmetry_multiplicity
 _atom_site_fract_x
 _atom_site_fract_y
 _atom_site_fract_z
 _atom_site_occupancy
  Nb  Nb0  1  0.92242811  0.92242811  0.07757189  1
  S  S1  1  0.32609542  0.18542653  0.81457347  1
  S  S2  1  0.18542653  0.32609542  0.67390458  1
