# generated using pymatgen
data_Ag3AsS4
_symmetry_space_group_name_H-M   'P 1'
_cell_length_a   7.83996099
_cell_length_b   7.00598615
_cell_length_c   6.64478529
_cell_angle_alpha   90.00000000
_cell_angle_beta   90.00000000
_cell_angle_gamma   90.00000000
_symmetry_Int_Tables_number   1
_chemical_formula_structural   Ag3AsS4
_chemical_formula_sum   'Ag6 As2 S8'
_cell_volume   364.97584997
_cell_formula_units_Z   2
loop_
 _symmetry_equiv_pos_site_id
 _symmetry_equiv_pos_as_xyz
  1  'x, y, z'
loop_
 _atom_site_type_symbol
 _atom_site_label
 _atom_site_symmetry_multiplicity
 _atom_site_fract_x
 _atom_site_fract_y
 _atom_site_fract_z
 _atom_site_occupancy
  Ag  Ag0  1  0.00000000  0.84890837  0.52528548  1
  Ag  Ag1  1  0.50000000  0.15109163  0.02528548  1
  Ag  Ag2  1  0.23208363  0.69131881  0.98015863  1
  Ag  Ag3  1  0.26791637  0.30868119  0.48015863  1
  Ag  Ag4  1  0.73208363  0.30868119  0.48015863  1
  Ag  Ag5  1  0.76791637  0.69131881  0.98015863  1
  As  As6  1  0.00000000  0.18415779  0.00100386  1
  As  As7  1  0.50000000  0.81584221  0.50100386  1
  S  S8  1  0.00000000  0.18710432  0.66603320  1
  S  S9  1  0.50000000  0.81289568  0.16603320  1
  S  S10  1  0.00000000  0.89246102  0.13629361  1
  S  S11  1  0.50000000  0.10753898  0.63629361  1
  S  S12  1  0.26809685  0.65683076  0.60658329  1
  S  S13  1  0.23190315  0.34316924  0.10658329  1
  S  S14  1  0.76809685  0.34316924  0.10658329  1
  S  S15  1  0.73190315  0.65683076  0.60658329  1
