# generated using pymatgen
data_RbSnS2
_symmetry_space_group_name_H-M   'P 1'
_cell_length_a   8.09238890
_cell_length_b   8.09238890
_cell_length_c   8.09238890
_cell_angle_alpha   28.85409935
_cell_angle_beta   28.85409935
_cell_angle_gamma   28.85409935
_symmetry_Int_Tables_number   1
_chemical_formula_structural   RbSnS2
_chemical_formula_sum   'Rb1 Sn1 S2'
_cell_volume   109.13719483
_cell_formula_units_Z   1
loop_
 _symmetry_equiv_pos_site_id
 _symmetry_equiv_pos_as_xyz
  1  'x, y, z'
loop_
 _atom_site_type_symbol
 _atom_site_label
 _atom_site_symmetry_multiplicity
 _atom_site_fract_x
 _atom_site_fract_y
 _atom_site_fract_z
 _atom_site_occupancy
  Rb  Rb0  1  0.17794857  0.17794857  0.17794857  1
  S  S1  1  0.40940060  0.40940060  0.40940060  1
  S  S2  1  0.61218804  0.61218804  0.61218804  1
  Sn  Sn3  1  0.01046045  0.01046045  0.01046045  1
