# generated using pymatgen
data_Mo2W(Se2S)2
_symmetry_space_group_name_H-M   'P 1'
_cell_length_a   3.27835691
_cell_length_b   3.27835691
_cell_length_c   28.32884709
_cell_angle_alpha   90.00000000
_cell_angle_beta   90.00000000
_cell_angle_gamma   120.00000000
_symmetry_Int_Tables_number   1
_chemical_formula_structural   Mo2W(Se2S)2
_chemical_formula_sum   'Mo2 W1 Se4 S2'
_cell_volume   263.67684774
_cell_formula_units_Z   1
loop_
 _symmetry_equiv_pos_site_id
 _symmetry_equiv_pos_as_xyz
  1  'x, y, z'
loop_
 _atom_site_type_symbol
 _atom_site_label
 _atom_site_symmetry_multiplicity
 _atom_site_fract_x
 _atom_site_fract_y
 _atom_site_fract_z
 _atom_site_occupancy
  Mo  Mo0  1  0.00000000  0.00000000  0.11541278  1
  Mo  Mo1  1  0.33333333  0.66666667  0.34953645  1
  S  S2  1  0.33333333  0.66666667  0.52138637  1
  S  S3  1  0.33333333  0.66666667  0.63055004  1
  Se  Se4  1  0.00000000  0.00000000  0.40920176  1
  Se  Se5  1  0.33333333  0.66666667  0.05579630  1
  Se  Se6  1  0.33333333  0.66666667  0.17510774  1
  Se  Se7  1  0.00000000  0.00000000  0.28985253  1
  W  W8  1  0.00000000  0.00000000  0.57599703  1
