# generated using pymatgen
data_CaSnS2
_symmetry_space_group_name_H-M   'P 1'
_cell_length_a   4.08034063
_cell_length_b   4.08034063
_cell_length_c   5.79503383
_cell_angle_alpha   90.00000000
_cell_angle_beta   90.00000000
_cell_angle_gamma   90.00000000
_symmetry_Int_Tables_number   1
_chemical_formula_structural   CaSnS2
_chemical_formula_sum   'Ca1 Sn1 S2'
_cell_volume   96.48255950
_cell_formula_units_Z   1
loop_
 _symmetry_equiv_pos_site_id
 _symmetry_equiv_pos_as_xyz
  1  'x, y, z'
loop_
 _atom_site_type_symbol
 _atom_site_label
 _atom_site_symmetry_multiplicity
 _atom_site_fract_x
 _atom_site_fract_y
 _atom_site_fract_z
 _atom_site_occupancy
  Ca  Ca0  1  0.00000000  0.00000000  0.25016990  1
  S  S1  1  0.00000000  0.00000000  0.74927892  1
  S  S2  1  0.50000000  0.50000000  0.25490898  1
  Sn  Sn3  1  0.50000000  0.50000000  0.74564220  1
