# generated using pymatgen
data_Mo2SeS3
_symmetry_space_group_name_H-M   'P 1'
_cell_length_a   3.22317575
_cell_length_b   3.22317575
_cell_length_c   34.01957820
_cell_angle_alpha   90.00000000
_cell_angle_beta   90.00000000
_cell_angle_gamma   120.00000000
_symmetry_Int_Tables_number   1
_chemical_formula_structural   Mo2SeS3
_chemical_formula_sum   'Mo4 Se2 S6'
_cell_volume   306.07476863
_cell_formula_units_Z   2
loop_
 _symmetry_equiv_pos_site_id
 _symmetry_equiv_pos_as_xyz
  1  'x, y, z'
loop_
 _atom_site_type_symbol
 _atom_site_label
 _atom_site_symmetry_multiplicity
 _atom_site_fract_x
 _atom_site_fract_y
 _atom_site_fract_z
 _atom_site_occupancy
  Mo  Mo0  1  0.00000000  0.00000000  0.09670893  1
  Mo  Mo1  1  0.00000000  0.00000000  0.46873413  1
  Mo  Mo2  1  0.33333333  0.66666667  0.27935080  1
  Mo  Mo3  1  0.33333333  0.66666667  0.65812262  1
  S  S4  1  0.00000000  0.00000000  0.32512095  1
  S  S5  1  0.00000000  0.00000000  0.70383599  1
  S  S6  1  0.33333333  0.66666667  0.05099255  1
  S  S7  1  0.33333333  0.66666667  0.14246567  1
  S  S8  1  0.00000000  0.00000000  0.23360067  1
  S  S9  1  0.00000000  0.00000000  0.61234894  1
  Se  Se10  1  0.33333333  0.66666667  0.41844314  1
  Se  Se11  1  0.33333333  0.66666667  0.51902461  1
