# generated using pymatgen
data_Mo2W(SeS2)2
_symmetry_space_group_name_H-M   'P 1'
_cell_length_a   3.23577813
_cell_length_b   3.23577813
_cell_length_c   27.83121257
_cell_angle_alpha   90.00000000
_cell_angle_beta   90.00000000
_cell_angle_gamma   120.00000000
_symmetry_Int_Tables_number   1
_chemical_formula_structural   Mo2W(SeS2)2
_chemical_formula_sum   'Mo2 W1 Se2 S4'
_cell_volume   252.35983299
_cell_formula_units_Z   1
loop_
 _symmetry_equiv_pos_site_id
 _symmetry_equiv_pos_as_xyz
  1  'x, y, z'
loop_
 _atom_site_type_symbol
 _atom_site_label
 _atom_site_symmetry_multiplicity
 _atom_site_fract_x
 _atom_site_fract_y
 _atom_site_fract_z
 _atom_site_occupancy
  Mo  Mo0  1  0.66666667  0.33333333  0.76853966  1
  Mo  Mo1  1  0.66666667  0.33333333  0.23146034  1
  S  S2  1  0.00000000  0.00000000  0.71280283  1
  S  S3  1  0.00000000  0.00000000  0.17565307  1
  S  S4  1  0.00000000  0.00000000  0.82434693  1
  S  S5  1  0.00000000  0.00000000  0.28719717  1
  Se  Se6  1  0.66666667  0.33333333  0.06169545  1
  Se  Se7  1  0.66666667  0.33333333  0.93830455  1
  W  W8  1  0.00000000  0.00000000  0.00000000  1
