# generated using pymatgen
data_Te4Mo3Se2
_symmetry_space_group_name_H-M   'P 1'
_cell_length_a   3.48445721
_cell_length_b   3.48445721
_cell_length_c   28.70705497
_cell_angle_alpha   90.00000000
_cell_angle_beta   90.00000000
_cell_angle_gamma   120.00000000
_symmetry_Int_Tables_number   1
_chemical_formula_structural   Te4Mo3Se2
_chemical_formula_sum   'Te4 Mo3 Se2'
_cell_volume   301.84886210
_cell_formula_units_Z   1
loop_
 _symmetry_equiv_pos_site_id
 _symmetry_equiv_pos_as_xyz
  1  'x, y, z'
loop_
 _atom_site_type_symbol
 _atom_site_label
 _atom_site_symmetry_multiplicity
 _atom_site_fract_x
 _atom_site_fract_y
 _atom_site_fract_z
 _atom_site_occupancy
  Mo  Mo0  1  0.00000000  0.00000000  0.76282092  1
  Mo  Mo1  1  0.00000000  0.00000000  0.23717908  1
  Mo  Mo2  1  0.33333333  0.66666667  0.00000000  1
  Se  Se3  1  0.00000000  0.00000000  0.05656549  1
  Se  Se4  1  0.00000000  0.00000000  0.94343451  1
  Te  Te5  1  0.33333333  0.66666667  0.69869187  1
  Te  Te6  1  0.33333333  0.66666667  0.17294811  1
  Te  Te7  1  0.33333333  0.66666667  0.82705189  1
  Te  Te8  1  0.33333333  0.66666667  0.30130813  1
