# generated using pymatgen
data_Pr2CdS4
_symmetry_space_group_name_H-M   'P 1'
_cell_length_a   7.47399166
_cell_length_b   7.47399166
_cell_length_c   7.47399166
_cell_angle_alpha   110.85359040
_cell_angle_beta   110.85359040
_cell_angle_gamma   106.74050923
_symmetry_Int_Tables_number   1
_chemical_formula_structural   Pr2CdS4
_chemical_formula_sum   'Pr4 Cd2 S8'
_cell_volume   320.84841652
_cell_formula_units_Z   2
loop_
 _symmetry_equiv_pos_site_id
 _symmetry_equiv_pos_as_xyz
  1  'x, y, z'
loop_
 _atom_site_type_symbol
 _atom_site_label
 _atom_site_symmetry_multiplicity
 _atom_site_fract_x
 _atom_site_fract_y
 _atom_site_fract_z
 _atom_site_occupancy
  Cd  Cd0  1  0.50000000  0.50000000  0.00000000  1
  Cd  Cd1  1  0.25000000  0.75000000  0.50000000  1
  Pr  Pr2  1  0.74015255  0.12500000  0.11515255  1
  Pr  Pr3  1  0.37500000  0.25984745  0.38484745  1
  Pr  Pr4  1  0.00984745  0.62500000  0.88484745  1
  Pr  Pr5  1  0.87500000  0.99015255  0.61515255  1
  S  S6  1  0.74573229  0.50973808  0.37667071  1
  S  S7  1  0.00426771  0.88093842  0.26400579  1
  S  S8  1  0.61693262  0.74026192  0.73599421  1
  S  S9  1  0.13306738  0.36906158  0.62332929  1
  S  S10  1  0.49026192  0.86693262  0.23599421  1
  S  S11  1  0.63093842  0.25426771  0.76400579  1
  S  S12  1  0.25973808  0.99573229  0.87667071  1
  S  S13  1  0.11906158  0.38306738  0.12332929  1
