# generated using pymatgen
data_ZnHgS2
_symmetry_space_group_name_H-M   'P 1'
_cell_length_a   7.06885966
_cell_length_b   7.06885966
_cell_length_c   7.06885966
_cell_angle_alpha   32.96623624
_cell_angle_beta   32.96623624
_cell_angle_gamma   32.96623624
_symmetry_Int_Tables_number   1
_chemical_formula_structural   ZnHgS2
_chemical_formula_sum   'Zn1 Hg1 S2'
_cell_volume   93.06815721
_cell_formula_units_Z   1
loop_
 _symmetry_equiv_pos_site_id
 _symmetry_equiv_pos_as_xyz
  1  'x, y, z'
loop_
 _atom_site_type_symbol
 _atom_site_label
 _atom_site_symmetry_multiplicity
 _atom_site_fract_x
 _atom_site_fract_y
 _atom_site_fract_z
 _atom_site_occupancy
  Hg  Hg0  1  0.00383534  0.00383534  0.00383534  1
  S  S1  1  0.13122909  0.13122909  0.13122909  1
  S  S2  1  0.61571539  0.61571539  0.61571539  1
  Zn  Zn3  1  0.49922017  0.49922017  0.49922017  1
