# generated using pymatgen
data_Zn(InS2)2
_symmetry_space_group_name_H-M   'P 1'
_cell_length_a   3.91487302
_cell_length_b   3.91487302
_cell_length_c   24.75614882
_cell_angle_alpha   90.00000000
_cell_angle_beta   90.00000000
_cell_angle_gamma   120.00000000
_symmetry_Int_Tables_number   1
_chemical_formula_structural   Zn(InS2)2
_chemical_formula_sum   'Zn2 In4 S8'
_cell_volume   328.58601606
_cell_formula_units_Z   2
loop_
 _symmetry_equiv_pos_site_id
 _symmetry_equiv_pos_as_xyz
  1  'x, y, z'
loop_
 _atom_site_type_symbol
 _atom_site_label
 _atom_site_symmetry_multiplicity
 _atom_site_fract_x
 _atom_site_fract_y
 _atom_site_fract_z
 _atom_site_occupancy
  In  In0  1  0.66666667  0.33333333  0.59436835  1
  In  In1  1  0.33333333  0.66666667  0.09436835  1
  In  In2  1  0.33333333  0.66666667  0.75643991  1
  In  In3  1  0.66666667  0.33333333  0.25643991  1
  S  S4  1  0.33333333  0.66666667  0.93437267  1
  S  S5  1  0.66666667  0.33333333  0.43437267  1
  S  S6  1  0.66666667  0.33333333  0.69394010  1
  S  S7  1  0.00000000  0.00000000  0.80758076  1
  S  S8  1  0.00000000  0.00000000  0.05080220  1
  S  S9  1  0.33333333  0.66666667  0.19394010  1
  S  S10  1  0.00000000  0.00000000  0.30758076  1
  S  S11  1  0.00000000  0.00000000  0.55080220  1
  Zn  Zn12  1  0.00000000  0.00000000  0.91299601  1
  Zn  Zn13  1  0.00000000  0.00000000  0.41299601  1
