# generated using pymatgen
data_Mo2WSe6
_symmetry_space_group_name_H-M   'P 1'
_cell_length_a   3.32699254
_cell_length_b   3.32699254
_cell_length_c   28.57927191
_cell_angle_alpha   90.00000000
_cell_angle_beta   90.00000000
_cell_angle_gamma   120.00000000
_symmetry_Int_Tables_number   1
_chemical_formula_structural   Mo2WSe6
_chemical_formula_sum   'Mo2 W1 Se6'
_cell_volume   273.95892096
_cell_formula_units_Z   1
loop_
 _symmetry_equiv_pos_site_id
 _symmetry_equiv_pos_as_xyz
  1  'x, y, z'
loop_
 _atom_site_type_symbol
 _atom_site_label
 _atom_site_symmetry_multiplicity
 _atom_site_fract_x
 _atom_site_fract_y
 _atom_site_fract_z
 _atom_site_occupancy
  Mo  Mo0  1  0.00000000  0.00000000  0.76910697  1
  Mo  Mo1  1  0.00000000  0.00000000  0.23089303  1
  Se  Se2  1  0.00000000  0.00000000  0.05888145  1
  Se  Se3  1  0.33333333  0.66666667  0.71061065  1
  Se  Se4  1  0.33333333  0.66666667  0.17232809  1
  Se  Se5  1  0.33333333  0.66666667  0.82767191  1
  Se  Se6  1  0.33333333  0.66666667  0.28938935  1
  Se  Se7  1  0.00000000  0.00000000  0.94111855  1
  W  W8  1  0.33333333  0.66666667  0.00000000  1
