# generated using pymatgen
data_BaSiTe2
_symmetry_space_group_name_H-M   'P 1'
_cell_length_a   4.65419171
_cell_length_b   4.65419171
_cell_length_c   6.92018481
_cell_angle_alpha   90.00000000
_cell_angle_beta   90.00000000
_cell_angle_gamma   90.00000000
_symmetry_Int_Tables_number   1
_chemical_formula_structural   BaSiTe2
_chemical_formula_sum   'Ba1 Si1 Te2'
_cell_volume   149.90158657
_cell_formula_units_Z   1
loop_
 _symmetry_equiv_pos_site_id
 _symmetry_equiv_pos_as_xyz
  1  'x, y, z'
loop_
 _atom_site_type_symbol
 _atom_site_label
 _atom_site_symmetry_multiplicity
 _atom_site_fract_x
 _atom_site_fract_y
 _atom_site_fract_z
 _atom_site_occupancy
  Ba  Ba0  1  0.50000000  0.50000000  0.85402437  1
  Si  Si1  1  0.00000000  0.00000000  0.33431563  1
  Te  Te2  1  0.00000000  0.00000000  0.95178275  1
  Te  Te3  1  0.50000000  0.50000000  0.35987792  1
