# generated using pymatgen
data_MoW3(Se3S)2
_symmetry_space_group_name_H-M   'P 1'
_cell_length_a   3.29167483
_cell_length_b   3.29167483
_cell_length_c   35.07043176
_cell_angle_alpha   90.00000000
_cell_angle_beta   90.00000000
_cell_angle_gamma   120.00000000
_symmetry_Int_Tables_number   1
_chemical_formula_structural   MoW3(Se3S)2
_chemical_formula_sum   'Mo1 W3 Se6 S2'
_cell_volume   329.08311351
_cell_formula_units_Z   1
loop_
 _symmetry_equiv_pos_site_id
 _symmetry_equiv_pos_as_xyz
  1  'x, y, z'
loop_
 _atom_site_type_symbol
 _atom_site_label
 _atom_site_symmetry_multiplicity
 _atom_site_fract_x
 _atom_site_fract_y
 _atom_site_fract_z
 _atom_site_occupancy
  Mo  Mo0  1  0.00000000  0.00000000  0.09339751  1
  S  S1  1  0.00000000  0.00000000  0.69885992  1
  S  S2  1  0.00000000  0.00000000  0.61092472  1
  Se  Se3  1  0.00000000  0.00000000  0.33091016  1
  Se  Se4  1  0.33333333  0.66666667  0.04537557  1
  Se  Se5  1  0.33333333  0.66666667  0.42369720  1
  Se  Se6  1  0.33333333  0.66666667  0.14147791  1
  Se  Se7  1  0.33333333  0.66666667  0.52038866  1
  Se  Se8  1  0.00000000  0.00000000  0.23420218  1
  W  W9  1  0.00000000  0.00000000  0.47204526  1
  W  W10  1  0.33333333  0.66666667  0.28255784  1
  W  W11  1  0.33333333  0.66666667  0.65491208  1
