# generated using pymatgen
data_TmAgS2
_symmetry_space_group_name_H-M   'P 1'
_cell_length_a   7.04657592
_cell_length_b   7.04657592
_cell_length_c   7.04657592
_cell_angle_alpha   135.29580333
_cell_angle_beta   135.29580333
_cell_angle_gamma   65.07093384
_symmetry_Int_Tables_number   1
_chemical_formula_structural   TmAgS2
_chemical_formula_sum   'Tm2 Ag2 S4'
_cell_volume   170.64699867
_cell_formula_units_Z   2
loop_
 _symmetry_equiv_pos_site_id
 _symmetry_equiv_pos_as_xyz
  1  'x, y, z'
loop_
 _atom_site_type_symbol
 _atom_site_label
 _atom_site_symmetry_multiplicity
 _atom_site_fract_x
 _atom_site_fract_y
 _atom_site_fract_z
 _atom_site_occupancy
  Ag  Ag0  1  0.21693263  0.71693263  0.50000000  1
  Ag  Ag1  1  0.46693263  0.46693263  0.00000000  1
  S  S2  1  0.98407966  0.48407966  0.50000000  1
  S  S3  1  0.23407966  0.23407966  0.00000000  1
  S  S4  1  0.52899233  0.02899233  0.50000000  1
  S  S5  1  0.77899233  0.77899233  0.00000000  1
  Tm  Tm6  1  0.75450339  0.25450339  0.50000000  1
  Tm  Tm7  1  0.00450339  0.00450339  0.00000000  1
