# generated using pymatgen
data_YAgS2
_symmetry_space_group_name_H-M   'P 1'
_cell_length_a   7.32021363
_cell_length_b   7.32021363
_cell_length_c   7.32021363
_cell_angle_alpha   31.43025604
_cell_angle_beta   31.43025604
_cell_angle_gamma   31.43025604
_symmetry_Int_Tables_number   1
_chemical_formula_structural   YAgS2
_chemical_formula_sum   'Y1 Ag1 S2'
_cell_volume   94.68515020
_cell_formula_units_Z   1
loop_
 _symmetry_equiv_pos_site_id
 _symmetry_equiv_pos_as_xyz
  1  'x, y, z'
loop_
 _atom_site_type_symbol
 _atom_site_label
 _atom_site_symmetry_multiplicity
 _atom_site_fract_x
 _atom_site_fract_y
 _atom_site_fract_z
 _atom_site_occupancy
  Ag  Ag0  1  0.85128188  0.85128188  0.85128188  1
  S  S1  1  0.73422334  0.73422334  0.73422334  1
  S  S2  1  0.25522295  0.25522295  0.25522295  1
  Y  Y3  1  0.00027084  0.00027084  0.00027084  1
