# generated using pymatgen
data_TeMo2Se3
_symmetry_space_group_name_H-M   'P 1'
_cell_length_a   3.38663330
_cell_length_b   3.38663330
_cell_length_c   26.89310024
_cell_angle_alpha   90.00000000
_cell_angle_beta   90.00000000
_cell_angle_gamma   120.00000000
_symmetry_Int_Tables_number   1
_chemical_formula_structural   TeMo2Se3
_chemical_formula_sum   'Te2 Mo4 Se6'
_cell_volume   267.12088864
_cell_formula_units_Z   2
loop_
 _symmetry_equiv_pos_site_id
 _symmetry_equiv_pos_as_xyz
  1  'x, y, z'
loop_
 _atom_site_type_symbol
 _atom_site_label
 _atom_site_symmetry_multiplicity
 _atom_site_fract_x
 _atom_site_fract_y
 _atom_site_fract_z
 _atom_site_occupancy
  Mo  Mo0  1  0.00000000  0.00000000  0.75728858  1
  Mo  Mo1  1  0.00000000  0.00000000  0.24271142  1
  Mo  Mo2  1  0.33333333  0.66666667  0.00000000  1
  Mo  Mo3  1  0.33333333  0.66666667  0.50000000  1
  Se  Se4  1  0.00000000  0.00000000  0.06154990  1
  Se  Se5  1  0.33333333  0.66666667  0.69576311  1
  Se  Se6  1  0.33333333  0.66666667  0.18132923  1
  Se  Se7  1  0.33333333  0.66666667  0.81867077  1
  Se  Se8  1  0.33333333  0.66666667  0.30423689  1
  Se  Se9  1  0.00000000  0.00000000  0.93845010  1
  Te  Te10  1  0.00000000  0.00000000  0.57002157  1
  Te  Te11  1  0.00000000  0.00000000  0.42997843  1
