# generated using pymatgen
data_Zn(InSe2)2
_symmetry_space_group_name_H-M   'P 1'
_cell_length_a   7.05233957
_cell_length_b   7.05233957
_cell_length_c   7.05233957
_cell_angle_alpha   131.26354609
_cell_angle_beta   131.26354609
_cell_angle_gamma   71.39469273
_symmetry_Int_Tables_number   1
_chemical_formula_structural   Zn(InSe2)2
_chemical_formula_sum   'Zn1 In2 Se4'
_cell_volume   193.96879797
_cell_formula_units_Z   1
loop_
 _symmetry_equiv_pos_site_id
 _symmetry_equiv_pos_as_xyz
  1  'x, y, z'
loop_
 _atom_site_type_symbol
 _atom_site_label
 _atom_site_symmetry_multiplicity
 _atom_site_fract_x
 _atom_site_fract_y
 _atom_site_fract_z
 _atom_site_occupancy
  In  In0  1  0.25000000  0.75000000  0.50000000  1
  In  In1  1  0.75000000  0.25000000  0.50000000  1
  Se  Se2  1  0.62829695  0.15715176  0.00000000  1
  Se  Se3  1  0.84284824  0.84284824  0.47114519  1
  Se  Se4  1  0.15715176  0.62829695  0.00000000  1
  Se  Se5  1  0.37170305  0.37170305  0.52885481  1
  Zn  Zn6  1  0.00000000  0.00000000  0.00000000  1
