# generated using pymatgen
data_Mo3W(Se3S)2
_symmetry_space_group_name_H-M   'P 1'
_cell_length_a   3.29051479
_cell_length_b   3.29051479
_cell_length_c   34.40334358
_cell_angle_alpha   90.00000000
_cell_angle_beta   90.00000000
_cell_angle_gamma   120.00000000
_symmetry_Int_Tables_number   1
_chemical_formula_structural   Mo3W(Se3S)2
_chemical_formula_sum   'Mo3 W1 Se6 S2'
_cell_volume   322.59600140
_cell_formula_units_Z   1
loop_
 _symmetry_equiv_pos_site_id
 _symmetry_equiv_pos_as_xyz
  1  'x, y, z'
loop_
 _atom_site_type_symbol
 _atom_site_label
 _atom_site_symmetry_multiplicity
 _atom_site_fract_x
 _atom_site_fract_y
 _atom_site_fract_z
 _atom_site_occupancy
  Mo  Mo0  1  0.66666667  0.33333333  0.09183096  1
  Mo  Mo1  1  0.00000000  0.00000000  0.28422691  1
  Mo  Mo2  1  0.00000000  0.00000000  0.65650265  1
  S  S3  1  0.00000000  0.00000000  0.42550554  1
  S  S4  1  0.00000000  0.00000000  0.51520564  1
  Se  Se5  1  0.66666667  0.33333333  0.33322930  1
  Se  Se6  1  0.66666667  0.33333333  0.70546656  1
  Se  Se7  1  0.00000000  0.00000000  0.04286856  1
  Se  Se8  1  0.00000000  0.00000000  0.14085887  1
  Se  Se9  1  0.66666667  0.33333333  0.23520753  1
  Se  Se10  1  0.66666667  0.33333333  0.60749185  1
  W  W11  1  0.66666667  0.33333333  0.47035463  1
