# generated using pymatgen
data_Pr2PbS4
_symmetry_space_group_name_H-M   'P 1'
_cell_length_a   7.56385799
_cell_length_b   7.56385799
_cell_length_c   7.56385799
_cell_angle_alpha   109.42918393
_cell_angle_beta   109.42918393
_cell_angle_gamma   109.55532679
_symmetry_Int_Tables_number   1
_chemical_formula_structural   Pr2PbS4
_chemical_formula_sum   'Pr4 Pb2 S8'
_cell_volume   333.12521514
_cell_formula_units_Z   2
loop_
 _symmetry_equiv_pos_site_id
 _symmetry_equiv_pos_as_xyz
  1  'x, y, z'
loop_
 _atom_site_type_symbol
 _atom_site_label
 _atom_site_symmetry_multiplicity
 _atom_site_fract_x
 _atom_site_fract_y
 _atom_site_fract_z
 _atom_site_occupancy
  Pb  Pb0  1  0.75000000  0.25000000  0.50000000  1
  Pb  Pb1  1  0.00000000  0.00000000  0.00000000  1
  Pr  Pr2  1  0.87500000  0.49137241  0.11637241  1
  Pr  Pr3  1  0.24137241  0.12500000  0.61637241  1
  Pr  Pr4  1  0.37500000  0.75862759  0.88362759  1
  Pr  Pr5  1  0.50862759  0.62500000  0.38362759  1
  S  S6  1  0.61469042  0.01782247  0.74838385  1
  S  S7  1  0.61630657  0.51943862  0.75161615  1
  S  S8  1  0.98217753  0.73056138  0.59686795  1
  S  S9  1  0.13369343  0.38530958  0.40313205  1
  S  S10  1  0.76782247  0.86469042  0.24838385  1
  S  S11  1  0.13530958  0.38369343  0.90313205  1
  S  S12  1  0.48056138  0.23217753  0.09686795  1
  S  S13  1  0.26943862  0.86630657  0.25161615  1
