# generated using pymatgen
data_Te4Mo(WSe)2
_symmetry_space_group_name_H-M   'P 1'
_cell_length_a   21.51799292
_cell_length_b   3.48802757
_cell_length_c   3.48802757
_cell_angle_alpha   60.00172511
_cell_angle_beta   90.00000000
_cell_angle_gamma   90.00000000
_symmetry_Int_Tables_number   1
_chemical_formula_structural   Te4Mo(WSe)2
_chemical_formula_sum   'Te4 Mo1 W2 Se2'
_cell_volume   226.72518164
_cell_formula_units_Z   1
loop_
 _symmetry_equiv_pos_site_id
 _symmetry_equiv_pos_as_xyz
  1  'x, y, z'
loop_
 _atom_site_type_symbol
 _atom_site_label
 _atom_site_symmetry_multiplicity
 _atom_site_fract_x
 _atom_site_fract_y
 _atom_site_fract_z
 _atom_site_occupancy
  Mo  Mo0  1  0.00000000  0.66568208  0.66568208  1
  Se  Se1  1  0.07539835  0.33234809  0.33234809  1
  Se  Se2  1  0.92460165  0.33234809  0.33234809  1
  Te  Te3  1  0.59729342  0.66717505  0.66717505  1
  Te  Te4  1  0.23071143  0.66712289  0.66712289  1
  Te  Te5  1  0.76928857  0.66712289  0.66712289  1
  Te  Te6  1  0.40270658  0.66717505  0.66717505  1
  W  W7  1  0.68327643  0.33381244  0.33381244  1
  W  W8  1  0.31672357  0.33381244  0.33381244  1
