# generated using pymatgen
data_Zn(GaS2)2
_symmetry_space_group_name_H-M   'P 1'
_cell_length_a   6.53724499
_cell_length_b   6.53724499
_cell_length_c   6.53724499
_cell_angle_alpha   132.98532572
_cell_angle_beta   132.98532572
_cell_angle_gamma   68.67719381
_symmetry_Int_Tables_number   1
_chemical_formula_structural   Zn(GaS2)2
_chemical_formula_sum   'Zn1 Ga2 S4'
_cell_volume   146.80181076
_cell_formula_units_Z   1
loop_
 _symmetry_equiv_pos_site_id
 _symmetry_equiv_pos_as_xyz
  1  'x, y, z'
loop_
 _atom_site_type_symbol
 _atom_site_label
 _atom_site_symmetry_multiplicity
 _atom_site_fract_x
 _atom_site_fract_y
 _atom_site_fract_z
 _atom_site_occupancy
  Ga  Ga0  1  0.25000000  0.75000000  0.50000000  1
  Ga  Ga1  1  0.75000000  0.25000000  0.50000000  1
  S  S2  1  0.14404183  0.14404183  0.53029491  1
  S  S3  1  0.38625308  0.85595817  0.00000000  1
  S  S4  1  0.61374692  0.61374692  0.46970509  1
  S  S5  1  0.85595817  0.38625308  0.00000000  1
  Zn  Zn6  1  0.00000000  0.00000000  0.00000000  1
