# generated using pymatgen
data_Mo2WS6
_symmetry_space_group_name_H-M   'P 1'
_cell_length_a   3.19135900
_cell_length_b   3.19135900
_cell_length_c   27.18848636
_cell_angle_alpha   90.00000000
_cell_angle_beta   90.00000000
_cell_angle_gamma   120.00000000
_symmetry_Int_Tables_number   1
_chemical_formula_structural   Mo2WS6
_chemical_formula_sum   'Mo2 W1 S6'
_cell_volume   239.80983239
_cell_formula_units_Z   1
loop_
 _symmetry_equiv_pos_site_id
 _symmetry_equiv_pos_as_xyz
  1  'x, y, z'
loop_
 _atom_site_type_symbol
 _atom_site_label
 _atom_site_symmetry_multiplicity
 _atom_site_fract_x
 _atom_site_fract_y
 _atom_site_fract_z
 _atom_site_occupancy
  Mo  Mo0  1  0.00000000  0.00000000  0.77003952  1
  Mo  Mo1  1  0.00000000  0.00000000  0.22996048  1
  S  S2  1  0.00000000  0.00000000  0.05796146  1
  S  S3  1  0.33333333  0.66666667  0.71245995  1
  S  S4  1  0.33333333  0.66666667  0.17233163  1
  S  S5  1  0.33333333  0.66666667  0.82766837  1
  S  S6  1  0.33333333  0.66666667  0.28754005  1
  S  S7  1  0.00000000  0.00000000  0.94203854  1
  W  W8  1  0.33333333  0.66666667  0.00000000  1
