# generated using pymatgen
data_AlAgS2
_symmetry_space_group_name_H-M   'P 1'
_cell_length_a   6.60840340
_cell_length_b   6.60840340
_cell_length_c   6.60840340
_cell_angle_alpha   128.60585207
_cell_angle_beta   128.60585207
_cell_angle_gamma   75.64560647
_symmetry_Int_Tables_number   1
_chemical_formula_structural   AlAgS2
_chemical_formula_sum   'Al2 Ag2 S4'
_cell_volume   171.44803955
_cell_formula_units_Z   2
loop_
 _symmetry_equiv_pos_site_id
 _symmetry_equiv_pos_as_xyz
  1  'x, y, z'
loop_
 _atom_site_type_symbol
 _atom_site_label
 _atom_site_symmetry_multiplicity
 _atom_site_fract_x
 _atom_site_fract_y
 _atom_site_fract_z
 _atom_site_occupancy
  Ag  Ag0  1  0.00000000  0.00000000  -0.00000000  1
  Ag  Ag1  1  0.75000000  0.25000000  0.50000000  1
  Al  Al2  1  0.25000000  0.75000000  0.50000000  1
  Al  Al3  1  0.50000000  0.50000000  -0.00000000  1
  S  S4  1  0.58147563  0.62500000  0.45647563  1
  S  S5  1  0.37500000  0.83147563  0.95647563  1
  S  S6  1  0.16852437  0.12500000  0.54352437  1
  S  S7  1  0.87500000  0.41852437  0.04352437  1
