# generated using pymatgen
data_Ba(PrS2)2
_symmetry_space_group_name_H-M   'P 1'
_cell_length_a   7.69301698
_cell_length_b   7.69301698
_cell_length_c   7.69301698
_cell_angle_alpha   109.42931659
_cell_angle_beta   109.42931659
_cell_angle_gamma   109.55506127
_symmetry_Int_Tables_number   1
_chemical_formula_structural   Ba(PrS2)2
_chemical_formula_sum   'Ba2 Pr4 S8'
_cell_volume   350.48342496
_cell_formula_units_Z   2
loop_
 _symmetry_equiv_pos_site_id
 _symmetry_equiv_pos_as_xyz
  1  'x, y, z'
loop_
 _atom_site_type_symbol
 _atom_site_label
 _atom_site_symmetry_multiplicity
 _atom_site_fract_x
 _atom_site_fract_y
 _atom_site_fract_z
 _atom_site_occupancy
  Ba  Ba0  1  0.00000000  0.00000000  0.00000000  1
  Ba  Ba1  1  0.75000000  0.25000000  0.50000000  1
  Pr  Pr2  1  0.87500000  0.50050179  0.12550179  1
  Pr  Pr3  1  0.49949821  0.62500000  0.37449821  1
  Pr  Pr4  1  0.37500000  0.74949821  0.87449821  1
  Pr  Pr5  1  0.25050179  0.12500000  0.62550179  1
  S  S6  1  0.60906339  0.51915547  0.75372687  1
  S  S7  1  0.98457141  0.73084453  0.58990792  1
  S  S8  1  0.60533651  0.01542859  0.74627313  1
  S  S9  1  0.26915547  0.85906339  0.25372687  1
  S  S10  1  0.76542859  0.85533651  0.24627313  1
  S  S11  1  0.14466349  0.39093661  0.91009208  1
  S  S12  1  0.48084453  0.23457141  0.08990792  1
  S  S13  1  0.14093661  0.39466349  0.41009208  1
