# generated using pymatgen
data_Te2Mo(WSe2)3
_symmetry_space_group_name_H-M   'P 1'
_cell_length_a   3.38412935
_cell_length_b   3.38412935
_cell_length_c   38.41989549
_cell_angle_alpha   90.00000000
_cell_angle_beta   90.00000000
_cell_angle_gamma   120.00000000
_symmetry_Int_Tables_number   1
_chemical_formula_structural   Te2Mo(WSe2)3
_chemical_formula_sum   'Te2 Mo1 W3 Se6'
_cell_volume   381.04890601
_cell_formula_units_Z   1
loop_
 _symmetry_equiv_pos_site_id
 _symmetry_equiv_pos_as_xyz
  1  'x, y, z'
loop_
 _atom_site_type_symbol
 _atom_site_label
 _atom_site_symmetry_multiplicity
 _atom_site_fract_x
 _atom_site_fract_y
 _atom_site_fract_z
 _atom_site_occupancy
  Mo  Mo0  1  0.66666667  0.33333333  0.28177616  1
  Se  Se1  1  0.33333333  0.66666667  0.32482528  1
  Se  Se2  1  0.33333333  0.66666667  0.70064928  1
  Se  Se3  1  0.66666667  0.33333333  0.05082182  1
  Se  Se4  1  0.66666667  0.33333333  0.13714331  1
  Se  Se5  1  0.33333333  0.66666667  0.23875444  1
  Se  Se6  1  0.33333333  0.66666667  0.61433838  1
  Te  Te7  1  0.66666667  0.33333333  0.42045916  1
  Te  Te8  1  0.66666667  0.33333333  0.51885331  1
  W  W9  1  0.33333333  0.66666667  0.09392838  1
  W  W10  1  0.33333333  0.66666667  0.46965123  1
  W  W11  1  0.66666667  0.33333333  0.65754825  1
