# generated using pymatgen
data_InAgS2
_symmetry_space_group_name_H-M   'P 1'
_cell_length_a   7.07939222
_cell_length_b   7.07939222
_cell_length_c   7.07939222
_cell_angle_alpha   130.71832695
_cell_angle_beta   130.71832695
_cell_angle_gamma   72.26098216
_symmetry_Int_Tables_number   1
_chemical_formula_structural   InAgS2
_chemical_formula_sum   'In2 Ag2 S4'
_cell_volume   199.25482648
_cell_formula_units_Z   2
loop_
 _symmetry_equiv_pos_site_id
 _symmetry_equiv_pos_as_xyz
  1  'x, y, z'
loop_
 _atom_site_type_symbol
 _atom_site_label
 _atom_site_symmetry_multiplicity
 _atom_site_fract_x
 _atom_site_fract_y
 _atom_site_fract_z
 _atom_site_occupancy
  Ag  Ag0  1  0.00000000  0.00000000  0.00000000  1
  Ag  Ag1  1  0.75000000  0.25000000  0.50000000  1
  In  In2  1  0.25000000  0.75000000  0.50000000  1
  In  In3  1  0.50000000  0.50000000  0.00000000  1
  S  S4  1  0.61690657  0.62500000  0.49190657  1
  S  S5  1  0.37500000  0.86690657  0.99190657  1
  S  S6  1  0.13309343  0.12500000  0.50809343  1
  S  S7  1  0.87500000  0.38309343  0.00809343  1
