# generated using pymatgen
data_MoW2(Se2S)2
_symmetry_space_group_name_H-M   'P 1'
_cell_length_a   20.01652469
_cell_length_b   3.28152045
_cell_length_c   3.28152045
_cell_angle_alpha   60.00149700
_cell_angle_beta   90.00000000
_cell_angle_gamma   90.00000000
_symmetry_Int_Tables_number   1
_chemical_formula_structural   MoW2(Se2S)2
_chemical_formula_sum   'Mo1 W2 Se4 S2'
_cell_volume   186.67067188
_cell_formula_units_Z   1
loop_
 _symmetry_equiv_pos_site_id
 _symmetry_equiv_pos_as_xyz
  1  'x, y, z'
loop_
 _atom_site_type_symbol
 _atom_site_label
 _atom_site_symmetry_multiplicity
 _atom_site_fract_x
 _atom_site_fract_y
 _atom_site_fract_z
 _atom_site_occupancy
  Mo  Mo0  1  0.50000000  0.33418126  0.33418126  1
  S  S1  1  0.42311084  0.66751848  0.66751848  1
  S  S2  1  0.57688916  0.66751848  0.66751848  1
  Se  Se3  1  0.90487809  0.33291480  0.33291480  1
  Se  Se4  1  0.26493286  0.33291887  0.33291887  1
  Se  Se5  1  0.73506714  0.33291887  0.33291887  1
  Se  Se6  1  0.09512191  0.33291480  0.33291480  1
  W  W7  1  0.81997423  0.66625673  0.66625673  1
  W  W8  1  0.18002577  0.66625673  0.66625673  1
