# generated using pymatgen
data_AlAgSe
_symmetry_space_group_name_H-M   'P 1'
_cell_length_a   3.99902420
_cell_length_b   6.76109397
_cell_length_c   6.76109397
_cell_angle_alpha   31.58728340
_cell_angle_beta   90.00000000
_cell_angle_gamma   90.00000000
_symmetry_Int_Tables_number   1
_chemical_formula_structural   AlAgSe
_chemical_formula_sum   'Al1 Ag1 Se1'
_cell_volume   95.75266333
_cell_formula_units_Z   1
loop_
 _symmetry_equiv_pos_site_id
 _symmetry_equiv_pos_as_xyz
  1  'x, y, z'
loop_
 _atom_site_type_symbol
 _atom_site_label
 _atom_site_symmetry_multiplicity
 _atom_site_fract_x
 _atom_site_fract_y
 _atom_site_fract_z
 _atom_site_occupancy
  Ag  Ag0  1  0.00000000  0.45086021  0.45086021  1
  Al  Al1  1  0.00000000  0.26425137  0.26425137  1
  Se  Se2  1  0.00000000  0.64936309  0.64936309  1
