# generated using pymatgen
data_MoW3S8
_symmetry_space_group_name_H-M   'P 1'
_cell_length_a   3.19278120
_cell_length_b   3.19278120
_cell_length_c   35.75521009
_cell_angle_alpha   90.00000000
_cell_angle_beta   90.00000000
_cell_angle_gamma   120.00000000
_symmetry_Int_Tables_number   1
_chemical_formula_structural   MoW3S8
_chemical_formula_sum   'Mo1 W3 S8'
_cell_volume   315.65180873
_cell_formula_units_Z   1
loop_
 _symmetry_equiv_pos_site_id
 _symmetry_equiv_pos_as_xyz
  1  'x, y, z'
loop_
 _atom_site_type_symbol
 _atom_site_label
 _atom_site_symmetry_multiplicity
 _atom_site_fract_x
 _atom_site_fract_y
 _atom_site_fract_z
 _atom_site_occupancy
  Mo  Mo0  1  0.00000000  0.00000000  0.09391875  1
  S  S1  1  0.00000000  0.00000000  0.32582012  1
  S  S2  1  0.00000000  0.00000000  0.70147843  1
  S  S3  1  0.33333333  0.66666667  0.05024320  1
  S  S4  1  0.33333333  0.66666667  0.42562619  1
  S  S5  1  0.33333333  0.66666667  0.13769302  1
  S  S6  1  0.33333333  0.66666667  0.51368544  1
  S  S7  1  0.00000000  0.00000000  0.23775985  1
  S  S8  1  0.00000000  0.00000000  0.61352921  1
  W  W9  1  0.00000000  0.00000000  0.46965667  1
  W  W10  1  0.33333333  0.66666667  0.28178945  1
  W  W11  1  0.33333333  0.66666667  0.65754867  1
