# generated using pymatgen
data_Ag3AsS3
_symmetry_space_group_name_H-M   'P 1'
_cell_length_a   6.89737906
_cell_length_b   6.89737906
_cell_length_c   6.89737906
_cell_angle_alpha   101.58854824
_cell_angle_beta   101.58854824
_cell_angle_gamma   101.58854824
_symmetry_Int_Tables_number   1
_chemical_formula_structural   Ag3AsS3
_chemical_formula_sum   'Ag6 As2 S6'
_cell_volume   304.78166938
_cell_formula_units_Z   2
loop_
 _symmetry_equiv_pos_site_id
 _symmetry_equiv_pos_as_xyz
  1  'x, y, z'
loop_
 _atom_site_type_symbol
 _atom_site_label
 _atom_site_symmetry_multiplicity
 _atom_site_fract_x
 _atom_site_fract_y
 _atom_site_fract_z
 _atom_site_occupancy
  Ag  Ag0  1  0.26536280  0.92705164  0.45083075  1
  Ag  Ag1  1  0.92705164  0.45083075  0.26536280  1
  Ag  Ag2  1  0.45083075  0.26536280  0.92705164  1
  Ag  Ag3  1  0.76536280  0.95083075  0.42705164  1
  Ag  Ag4  1  0.42705164  0.76536280  0.95083075  1
  Ag  Ag5  1  0.95083075  0.42705164  0.76536280  1
  As  As6  1  0.00350771  0.00350771  0.00350771  1
  As  As7  1  0.50350771  0.50350771  0.50350771  1
  S  S8  1  0.09540556  0.77809416  0.76084838  1
  S  S9  1  0.77809416  0.76084838  0.09540556  1
  S  S10  1  0.59540556  0.26084838  0.27809416  1
  S  S11  1  0.76084838  0.09540556  0.77809416  1
  S  S12  1  0.26084838  0.27809416  0.59540556  1
  S  S13  1  0.27809416  0.59540556  0.26084838  1
