# generated using pymatgen
data_WS2
_symmetry_space_group_name_H-M   'P 1'
_cell_length_a   3.19326808
_cell_length_b   3.19326808
_cell_length_c   26.27985577
_cell_angle_alpha   90.00000000
_cell_angle_beta   90.00000000
_cell_angle_gamma   120.00000000
_symmetry_Int_Tables_number   1
_chemical_formula_structural   WS2
_chemical_formula_sum   'W3 S6'
_cell_volume   232.07286796
_cell_formula_units_Z   3
loop_
 _symmetry_equiv_pos_site_id
 _symmetry_equiv_pos_as_xyz
  1  'x, y, z'
loop_
 _atom_site_type_symbol
 _atom_site_label
 _atom_site_symmetry_multiplicity
 _atom_site_fract_x
 _atom_site_fract_y
 _atom_site_fract_z
 _atom_site_occupancy
  S  S0  1  0.00000000  0.00000000  0.20168639  1
  S  S1  1  0.00000000  0.00000000  0.67847274  1
  S  S2  1  0.33333333  0.66666667  0.44006364  1
  S  S3  1  0.00000000  0.00000000  0.32152726  1
  S  S4  1  0.00000000  0.00000000  0.79831361  1
  S  S5  1  0.33333333  0.66666667  0.55993636  1
  W  W6  1  0.00000000  0.00000000  0.50000000  1
  W  W7  1  0.33333333  0.66666667  0.26158220  1
  W  W8  1  0.33333333  0.66666667  0.73841780  1
