# generated using pymatgen
data_Te2Mo3WSe6
_symmetry_space_group_name_H-M   'P 1'
_cell_length_a   3.38442058
_cell_length_b   3.38442058
_cell_length_c   35.95986901
_cell_angle_alpha   90.00000000
_cell_angle_beta   90.00000000
_cell_angle_gamma   120.00000000
_symmetry_Int_Tables_number   1
_chemical_formula_structural   Te2Mo3WSe6
_chemical_formula_sum   'Te2 Mo3 W1 Se6'
_cell_volume   356.71172794
_cell_formula_units_Z   1
loop_
 _symmetry_equiv_pos_site_id
 _symmetry_equiv_pos_as_xyz
  1  'x, y, z'
loop_
 _atom_site_type_symbol
 _atom_site_label
 _atom_site_symmetry_multiplicity
 _atom_site_fract_x
 _atom_site_fract_y
 _atom_site_fract_z
 _atom_site_occupancy
  Mo  Mo0  1  0.33333333  0.66666667  0.08940667  1
  Mo  Mo1  1  0.66666667  0.33333333  0.28179810  1
  Mo  Mo2  1  0.66666667  0.33333333  0.65686457  1
  Se  Se3  1  0.33333333  0.66666667  0.70282000  1
  Se  Se4  1  0.66666667  0.33333333  0.04345736  1
  Se  Se5  1  0.66666667  0.33333333  0.42859888  1
  Se  Se6  1  0.66666667  0.33333333  0.13544787  1
  Se  Se7  1  0.66666667  0.33333333  0.52106346  1
  Se  Se8  1  0.33333333  0.66666667  0.61085751  1
  Te  Te9  1  0.33333333  0.66666667  0.33417777  1
  Te  Te10  1  0.33333333  0.66666667  0.22941264  1
  W  W11  1  0.33333333  0.66666667  0.47484418  1
