# generated using pymatgen
data_Tb2PbS4
_symmetry_space_group_name_H-M   'P 1'
_cell_length_a   7.37657554
_cell_length_b   7.37657554
_cell_length_c   7.37657554
_cell_angle_alpha   109.35888656
_cell_angle_beta   109.35888656
_cell_angle_gamma   109.69612314
_symmetry_Int_Tables_number   1
_chemical_formula_structural   Tb2PbS4
_chemical_formula_sum   'Tb4 Pb2 S8'
_cell_volume   308.98505218
_cell_formula_units_Z   2
loop_
 _symmetry_equiv_pos_site_id
 _symmetry_equiv_pos_as_xyz
  1  'x, y, z'
loop_
 _atom_site_type_symbol
 _atom_site_label
 _atom_site_symmetry_multiplicity
 _atom_site_fract_x
 _atom_site_fract_y
 _atom_site_fract_z
 _atom_site_occupancy
  Pb  Pb0  1  0.75000000  0.25000000  0.50000000  1
  Pb  Pb1  1  0.00000000  0.00000000  0.00000000  1
  S  S2  1  0.99027719  0.39217027  0.25379253  1
  S  S3  1  0.60782973  0.86162225  0.59810691  1
  S  S4  1  0.14217027  0.24027719  0.75379253  1
  S  S5  1  0.61162225  0.85782973  0.09810691  1
  S  S6  1  0.75972281  0.51351534  0.90189309  1
  S  S7  1  0.26351534  0.00972281  0.40189309  1
  S  S8  1  0.13837775  0.73648466  0.74620747  1
  S  S9  1  0.48648466  0.38837775  0.24620747  1
  Tb  Tb10  1  0.50620476  0.12500000  0.88120476  1
  Tb  Tb11  1  0.87500000  0.75620476  0.38120476  1
  Tb  Tb12  1  0.24379524  0.62500000  0.11879524  1
  Tb  Tb13  1  0.37500000  0.49379524  0.61879524  1
