# generated using pymatgen
data_ZnSe
_symmetry_space_group_name_H-M   'P 1'
_cell_length_a   4.03357336
_cell_length_b   4.03357336
_cell_length_c   6.63797203
_cell_angle_alpha   90.00000000
_cell_angle_beta   90.00000000
_cell_angle_gamma   120.00000000
_symmetry_Int_Tables_number   1
_chemical_formula_structural   ZnSe
_chemical_formula_sum   'Zn2 Se2'
_cell_volume   93.52893076
_cell_formula_units_Z   2
loop_
 _symmetry_equiv_pos_site_id
 _symmetry_equiv_pos_as_xyz
  1  'x, y, z'
loop_
 _atom_site_type_symbol
 _atom_site_label
 _atom_site_symmetry_multiplicity
 _atom_site_fract_x
 _atom_site_fract_y
 _atom_site_fract_z
 _atom_site_occupancy
  Se  Se0  1  0.66666667  0.33333333  0.12570485  1
  Se  Se1  1  0.33333333  0.66666667  0.62570485  1
  Zn  Zn2  1  0.66666667  0.33333333  0.49929515  1
  Zn  Zn3  1  0.33333333  0.66666667  0.99929515  1
