# generated using pymatgen
data_Te3W2Se
_symmetry_space_group_name_H-M   'P 1'
_cell_length_a   3.49937361
_cell_length_b   3.49937361
_cell_length_c   39.57234741
_cell_angle_alpha   90.00000000
_cell_angle_beta   90.00000000
_cell_angle_gamma   120.00000000
_symmetry_Int_Tables_number   1
_chemical_formula_structural   Te3W2Se
_chemical_formula_sum   'Te6 W4 Se2'
_cell_volume   419.66530806
_cell_formula_units_Z   2
loop_
 _symmetry_equiv_pos_site_id
 _symmetry_equiv_pos_as_xyz
  1  'x, y, z'
loop_
 _atom_site_type_symbol
 _atom_site_label
 _atom_site_symmetry_multiplicity
 _atom_site_fract_x
 _atom_site_fract_y
 _atom_site_fract_z
 _atom_site_occupancy
  Se  Se0  1  0.33333333  0.66666667  0.32285784  1
  Se  Se1  1  0.33333333  0.66666667  0.24074252  1
  Te  Te2  1  0.33333333  0.66666667  0.70402506  1
  Te  Te3  1  0.66666667  0.33333333  0.04744661  1
  Te  Te4  1  0.66666667  0.33333333  0.42291297  1
  Te  Te5  1  0.66666667  0.33333333  0.14065712  1
  Te  Te6  1  0.66666667  0.33333333  0.51631685  1
  Te  Te7  1  0.33333333  0.66666667  0.61087063  1
  W  W8  1  0.33333333  0.66666667  0.09386492  1
  W  W9  1  0.33333333  0.66666667  0.46964775  1
  W  W10  1  0.66666667  0.33333333  0.28179800  1
  W  W11  1  0.66666667  0.33333333  0.65760874  1
