# generated using pymatgen
data_Te4Mo2WSe2
_symmetry_space_group_name_H-M   'P 1'
_cell_length_a   25.72614716
_cell_length_b   3.48152508
_cell_length_c   3.48152508
_cell_angle_alpha   60.07278773
_cell_angle_beta   90.00000000
_cell_angle_gamma   90.00000000
_symmetry_Int_Tables_number   1
_chemical_formula_structural   Te4Mo2WSe2
_chemical_formula_sum   'Te4 Mo2 W1 Se2'
_cell_volume   270.24801089
_cell_formula_units_Z   1
loop_
 _symmetry_equiv_pos_site_id
 _symmetry_equiv_pos_as_xyz
  1  'x, y, z'
loop_
 _atom_site_type_symbol
 _atom_site_label
 _atom_site_symmetry_multiplicity
 _atom_site_fract_x
 _atom_site_fract_y
 _atom_site_fract_z
 _atom_site_occupancy
  Mo  Mo0  1  0.73570250  0.33871837  0.33871837  1
  Mo  Mo1  1  0.26429750  0.33871837  0.33871837  1
  Se  Se2  1  0.06332059  0.32252191  0.32252191  1
  Se  Se3  1  0.93667941  0.32252191  0.32252191  1
  Te  Te4  1  0.66412251  0.67255931  0.67255931  1
  Te  Te5  1  0.19262711  0.67124927  0.67124927  1
  Te  Te6  1  0.80737289  0.67124927  0.67124927  1
  Te  Te7  1  0.33587749  0.67255931  0.67255931  1
  W  W8  1  0.00000000  0.65650129  0.65650129  1
