# generated using pymatgen
data_Ga2Se3
_symmetry_space_group_name_H-M   'P 1'
_cell_length_a   6.76788423
_cell_length_b   6.76788423
_cell_length_c   6.76788423
_cell_angle_alpha   146.64402541
_cell_angle_beta   60.55381737
_cell_angle_gamma   131.02097161
_symmetry_Int_Tables_number   1
_chemical_formula_structural   Ga2Se3
_chemical_formula_sum   'Ga2 Se3'
_cell_volume   127.39543446
_cell_formula_units_Z   1
loop_
 _symmetry_equiv_pos_site_id
 _symmetry_equiv_pos_as_xyz
  1  'x, y, z'
loop_
 _atom_site_type_symbol
 _atom_site_label
 _atom_site_symmetry_multiplicity
 _atom_site_fract_x
 _atom_site_fract_y
 _atom_site_fract_z
 _atom_site_occupancy
  Ga  Ga0  1  0.64996524  0.99004113  0.65992411  1
  Ga  Ga1  1  0.33011702  0.99004113  0.34007589  1
  Se  Se2  1  0.92648723  0.77020639  0.15628085  1
  Se  Se3  1  0.61392554  0.77020639  0.84371915  1
  Se  Se4  1  0.22950596  0.72950596  0.50000000  1
