# generated using pymatgen
data_Ag2GeS3
_symmetry_space_group_name_H-M   'P 1'
_cell_length_a   6.88081418
_cell_length_b   6.88081418
_cell_length_c   6.53851749
_cell_angle_alpha   90.00000000
_cell_angle_beta   90.00000000
_cell_angle_gamma   61.44749716
_symmetry_Int_Tables_number   1
_chemical_formula_structural   Ag2GeS3
_chemical_formula_sum   'Ag4 Ge2 S6'
_cell_volume   271.91999325
_cell_formula_units_Z   2
loop_
 _symmetry_equiv_pos_site_id
 _symmetry_equiv_pos_as_xyz
  1  'x, y, z'
loop_
 _atom_site_type_symbol
 _atom_site_label
 _atom_site_symmetry_multiplicity
 _atom_site_fract_x
 _atom_site_fract_y
 _atom_site_fract_z
 _atom_site_occupancy
  Ag  Ag0  1  0.00493923  0.30537654  0.49181917  1
  Ag  Ag1  1  0.99506077  0.69462346  0.99181917  1
  Ag  Ag2  1  0.69462346  0.99506077  0.49181917  1
  Ag  Ag3  1  0.30537654  0.00493923  0.99181917  1
  Ge  Ge4  1  0.66102854  0.33897146  0.95947805  1
  Ge  Ge5  1  0.33897146  0.66102854  0.45947805  1
  S  S6  1  0.35606832  0.64393168  0.82335940  1
  S  S7  1  0.64393168  0.35606832  0.32335940  1
  S  S8  1  0.03360699  0.64991928  0.37526310  1
  S  S9  1  0.35008072  0.96639301  0.37526310  1
  S  S10  1  0.64991928  0.03360699  0.87526310  1
  S  S11  1  0.96639301  0.35008072  0.87526310  1
