# generated using pymatgen
data_GePtS
_symmetry_space_group_name_H-M   'P 1'
_cell_length_a   5.95363576
_cell_length_b   5.98780781
_cell_length_c   5.92770103
_cell_angle_alpha   90.00000000
_cell_angle_beta   90.00000000
_cell_angle_gamma   90.00000000
_symmetry_Int_Tables_number   1
_chemical_formula_structural   GePtS
_chemical_formula_sum   'Ge4 Pt4 S4'
_cell_volume   211.31795820
_cell_formula_units_Z   4
loop_
 _symmetry_equiv_pos_site_id
 _symmetry_equiv_pos_as_xyz
  1  'x, y, z'
loop_
 _atom_site_type_symbol
 _atom_site_label
 _atom_site_symmetry_multiplicity
 _atom_site_fract_x
 _atom_site_fract_y
 _atom_site_fract_z
 _atom_site_occupancy
  Ge  Ge0  1  0.88625057  0.86834086  0.61303357  1
  Ge  Ge1  1  0.11374943  0.13165914  0.11303357  1
  Ge  Ge2  1  0.61374943  0.86834086  0.11303357  1
  Ge  Ge3  1  0.38625057  0.13165914  0.61303357  1
  Pt  Pt4  1  0.49706660  0.24983547  0.99868876  1
  Pt  Pt5  1  0.50293340  0.75016453  0.49868876  1
  Pt  Pt6  1  0.00293340  0.24983547  0.49868876  1
  Pt  Pt7  1  0.99706660  0.75016453  0.99868876  1
  S  S8  1  0.11409374  0.63681667  0.38727767  1
  S  S9  1  0.88590626  0.36318333  0.88727767  1
  S  S10  1  0.38590626  0.63681667  0.88727767  1
  S  S11  1  0.61409374  0.36318333  0.38727767  1
