# generated using pymatgen
data_WSeS
_symmetry_space_group_name_H-M   'P 1'
_cell_length_a   3.25796540
_cell_length_b   3.25796540
_cell_length_c   33.30534526
_cell_angle_alpha   90.08226565
_cell_angle_beta   90.08226565
_cell_angle_gamma   59.99999092
_symmetry_Int_Tables_number   1
_chemical_formula_structural   WSeS
_chemical_formula_sum   'W4 Se4 S4'
_cell_volume   306.15183693
_cell_formula_units_Z   4
loop_
 _symmetry_equiv_pos_site_id
 _symmetry_equiv_pos_as_xyz
  1  'x, y, z'
loop_
 _atom_site_type_symbol
 _atom_site_label
 _atom_site_symmetry_multiplicity
 _atom_site_fract_x
 _atom_site_fract_y
 _atom_site_fract_z
 _atom_site_occupancy
  S  S0  1  0.66721527  0.66721527  0.96082638  1
  S  S1  1  0.66733469  0.66733469  0.57437603  1
  S  S2  1  0.66612250  0.66612250  0.86757787  1
  S  S3  1  0.66650343  0.66650343  0.48108369  1
  Se  Se4  1  0.33290491  0.33290491  0.66963984  1
  Se  Se5  1  0.33244892  0.33244892  0.28295137  1
  Se  Se6  1  0.33374046  0.33374046  0.77220319  1
  Se  Se7  1  0.33374568  0.33374568  0.38551344  1
  W  W8  1  0.33334009  0.33334009  0.91422622  1
  W  W9  1  0.33358844  0.33358844  0.52772994  1
  W  W10  1  0.66663991  0.66663991  0.72092198  1
  W  W11  1  0.66641718  0.66641718  0.33420206  1
