# generated using pymatgen
data_Te8MoW3
_symmetry_space_group_name_H-M   'P 1'
_cell_length_a   3.56960928
_cell_length_b   3.56960928
_cell_length_c   38.07841726
_cell_angle_alpha   90.00000000
_cell_angle_beta   90.00000000
_cell_angle_gamma   120.00000000
_symmetry_Int_Tables_number   1
_chemical_formula_structural   Te8MoW3
_chemical_formula_sum   'Te8 Mo1 W3'
_cell_volume   420.19500398
_cell_formula_units_Z   1
loop_
 _symmetry_equiv_pos_site_id
 _symmetry_equiv_pos_as_xyz
  1  'x, y, z'
loop_
 _atom_site_type_symbol
 _atom_site_label
 _atom_site_symmetry_multiplicity
 _atom_site_fract_x
 _atom_site_fract_y
 _atom_site_fract_z
 _atom_site_occupancy
  Mo  Mo0  1  0.00000000  0.00000000  0.09460655  1
  Te  Te1  1  0.00000000  0.00000000  0.32966006  1
  Te  Te2  1  0.00000000  0.00000000  0.70461353  1
  Te  Te3  1  0.33333333  0.66666667  0.04710058  1
  Te  Te4  1  0.33333333  0.66666667  0.42170612  1
  Te  Te5  1  0.33333333  0.66666667  0.14219554  1
  Te  Te6  1  0.33333333  0.66666667  0.51717839  1
  Te  Te7  1  0.00000000  0.00000000  0.23418099  1
  Te  Te8  1  0.00000000  0.00000000  0.60919554  1
  W  W9  1  0.00000000  0.00000000  0.46944244  1
  W  W10  1  0.33333333  0.66666667  0.28192324  1
  W  W11  1  0.33333333  0.66666667  0.65694501  1
