# generated using pymatgen
data_Cd2GaCuSe4
_symmetry_space_group_name_H-M   'P 1'
_cell_length_a   7.28024304
_cell_length_b   7.28024304
_cell_length_c   7.28024304
_cell_angle_alpha   132.30806904
_cell_angle_beta   132.30806904
_cell_angle_gamma   69.74289838
_symmetry_Int_Tables_number   1
_chemical_formula_structural   Cd2GaCuSe4
_chemical_formula_sum   'Cd2 Ga1 Cu1 Se4'
_cell_volume   206.96913076
_cell_formula_units_Z   1
loop_
 _symmetry_equiv_pos_site_id
 _symmetry_equiv_pos_as_xyz
  1  'x, y, z'
loop_
 _atom_site_type_symbol
 _atom_site_label
 _atom_site_symmetry_multiplicity
 _atom_site_fract_x
 _atom_site_fract_y
 _atom_site_fract_z
 _atom_site_occupancy
  Cd  Cd0  1  0.25000000  0.75000000  0.50000000  1
  Cd  Cd1  1  0.75000000  0.25000000  0.50000000  1
  Cu  Cu2  1  0.00000000  0.00000000  0.00000000  1
  Ga  Ga3  1  0.50000000  0.50000000  0.00000000  1
  Se  Se4  1  0.86155057  0.35989374  0.00000000  1
  Se  Se5  1  0.13844943  0.13844943  0.49834317  1
  Se  Se6  1  0.35989374  0.86155057  0.00000000  1
  Se  Se7  1  0.64010626  0.64010626  0.50165683  1
