# generated using pymatgen
data_TeMoWSe3
_symmetry_space_group_name_H-M   'P 1'
_cell_length_a   3.38766948
_cell_length_b   3.38766948
_cell_length_c   38.31321166
_cell_angle_alpha   90.00000000
_cell_angle_beta   90.00000000
_cell_angle_gamma   120.00000000
_symmetry_Int_Tables_number   1
_chemical_formula_structural   TeMoWSe3
_chemical_formula_sum   'Te2 Mo2 W2 Se6'
_cell_volume   380.78624680
_cell_formula_units_Z   2
loop_
 _symmetry_equiv_pos_site_id
 _symmetry_equiv_pos_as_xyz
  1  'x, y, z'
loop_
 _atom_site_type_symbol
 _atom_site_label
 _atom_site_symmetry_multiplicity
 _atom_site_fract_x
 _atom_site_fract_y
 _atom_site_fract_z
 _atom_site_occupancy
  Mo  Mo0  1  0.00000000  0.00000000  0.46965995  1
  Mo  Mo1  1  0.33333333  0.66666667  0.28174252  1
  Se  Se2  1  0.00000000  0.00000000  0.32497774  1
  Se  Se3  1  0.00000000  0.00000000  0.70077091  1
  Se  Se4  1  0.33333333  0.66666667  0.05071990  1
  Se  Se5  1  0.33333333  0.66666667  0.13735678  1
  Se  Se6  1  0.00000000  0.00000000  0.23857412  1
  Se  Se7  1  0.00000000  0.00000000  0.61415510  1
  Te  Te8  1  0.33333333  0.66666667  0.42047872  1
  Te  Te9  1  0.33333333  0.66666667  0.51881636  1
  W  W10  1  0.00000000  0.00000000  0.09393866  1
  W  W11  1  0.33333333  0.66666667  0.65755824  1
