# generated using pymatgen
data_RbAuSe
_symmetry_space_group_name_H-M   'P 1'
_cell_length_a   4.59318696
_cell_length_b   6.40044384
_cell_length_c   6.40044384
_cell_angle_alpha   42.78432235
_cell_angle_beta   90.00000000
_cell_angle_gamma   90.00000000
_symmetry_Int_Tables_number   1
_chemical_formula_structural   RbAuSe
_chemical_formula_sum   'Rb1 Au1 Se1'
_cell_volume   127.80795507
_cell_formula_units_Z   1
loop_
 _symmetry_equiv_pos_site_id
 _symmetry_equiv_pos_as_xyz
  1  'x, y, z'
loop_
 _atom_site_type_symbol
 _atom_site_label
 _atom_site_symmetry_multiplicity
 _atom_site_fract_x
 _atom_site_fract_y
 _atom_site_fract_z
 _atom_site_occupancy
  Au  Au0  1  0.00000000  0.47095529  0.47095529  1
  Rb  Rb1  1  0.00000000  0.19154951  0.19154951  1
  Se  Se2  1  0.00000000  0.90507385  0.90507385  1
