# generated using pymatgen
data_Yb(NdS2)2
_symmetry_space_group_name_H-M   'P 1'
_cell_length_a   7.38081858
_cell_length_b   7.38081858
_cell_length_c   7.38081858
_cell_angle_alpha   109.59923001
_cell_angle_beta   109.59923001
_cell_angle_gamma   109.21550411
_symmetry_Int_Tables_number   1
_chemical_formula_structural   Yb(NdS2)2
_chemical_formula_sum   'Yb2 Nd4 S8'
_cell_volume   309.51750498
_cell_formula_units_Z   2
loop_
 _symmetry_equiv_pos_site_id
 _symmetry_equiv_pos_as_xyz
  1  'x, y, z'
loop_
 _atom_site_type_symbol
 _atom_site_label
 _atom_site_symmetry_multiplicity
 _atom_site_fract_x
 _atom_site_fract_y
 _atom_site_fract_z
 _atom_site_occupancy
  Nd  Nd0  1  0.87500000  0.49689632  0.12189632  1
  Nd  Nd1  1  0.24689632  0.12500000  0.62189632  1
  Nd  Nd2  1  0.37500000  0.75310368  0.87810368  1
  Nd  Nd3  1  0.50310368  0.62500000  0.37810368  1
  S  S4  1  0.77188936  0.87717741  0.25248637  1
  S  S5  1  0.12530896  0.37282259  0.39471195  1
  S  S6  1  0.97811064  0.73059702  0.60528805  1
  S  S7  1  0.26940298  0.87469104  0.24751363  1
  S  S8  1  0.12282259  0.37530896  0.89471195  1
  S  S9  1  0.62717741  0.02188936  0.75248637  1
  S  S10  1  0.48059702  0.22811064  0.10528805  1
  S  S11  1  0.62469104  0.51940298  0.74751363  1
  Yb  Yb12  1  0.75000000  0.25000000  0.50000000  1
  Yb  Yb13  1  0.00000000  0.00000000  0.00000000  1
