# generated using pymatgen
data_Tm2MgSe4
_symmetry_space_group_name_H-M   'P 1'
_cell_length_a   7.46985490
_cell_length_b   7.46985490
_cell_length_c   7.46985490
_cell_angle_alpha   110.50302331
_cell_angle_beta   110.50302331
_cell_angle_gamma   107.42675703
_symmetry_Int_Tables_number   1
_chemical_formula_structural   Tm2MgSe4
_chemical_formula_sum   'Tm4 Mg2 Se8'
_cell_volume   320.55423834
_cell_formula_units_Z   2
loop_
 _symmetry_equiv_pos_site_id
 _symmetry_equiv_pos_as_xyz
  1  'x, y, z'
loop_
 _atom_site_type_symbol
 _atom_site_label
 _atom_site_symmetry_multiplicity
 _atom_site_fract_x
 _atom_site_fract_y
 _atom_site_fract_z
 _atom_site_occupancy
  Mg  Mg0  1  0.75000000  0.25000000  0.50000000  1
  Mg  Mg1  1  0.00000000  0.00000000  0.00000000  1
  Se  Se2  1  0.63138095  0.86980361  0.63260080  1
  Se  Se3  1  0.13019639  0.76279719  0.76157734  1
  Se  Se4  1  0.23720281  0.99878015  0.36739920  1
  Se  Se5  1  0.00121985  0.36861905  0.23842266  1
  Se  Se6  1  0.11861905  0.25121985  0.73842266  1
  Se  Se7  1  0.61980361  0.88138095  0.13260080  1
  Se  Se8  1  0.51279719  0.38019639  0.26157734  1
  Se  Se9  1  0.74878015  0.48720281  0.86739920  1
  Tm  Tm10  1  0.37500000  0.49348652  0.61848652  1
  Tm  Tm11  1  0.50651348  0.12500000  0.88151348  1
  Tm  Tm12  1  0.87500000  0.75651348  0.38151348  1
  Tm  Tm13  1  0.24348652  0.62500000  0.11848652  1
