# generated using pymatgen
data_Mo3WSe8
_symmetry_space_group_name_H-M   'P 1'
_cell_length_a   3.32753810
_cell_length_b   3.32753810
_cell_length_c   35.17121919
_cell_angle_alpha   90.00000000
_cell_angle_beta   90.00000000
_cell_angle_gamma   120.00000000
_symmetry_Int_Tables_number   1
_chemical_formula_structural   Mo3WSe8
_chemical_formula_sum   'Mo3 W1 Se8'
_cell_volume   337.25945020
_cell_formula_units_Z   1
loop_
 _symmetry_equiv_pos_site_id
 _symmetry_equiv_pos_as_xyz
  1  'x, y, z'
loop_
 _atom_site_type_symbol
 _atom_site_label
 _atom_site_symmetry_multiplicity
 _atom_site_fract_x
 _atom_site_fract_y
 _atom_site_fract_z
 _atom_site_occupancy
  Mo  Mo0  1  0.33333333  0.66666667  0.09483552  1
  Mo  Mo1  1  0.33333333  0.66666667  0.46922272  1
  Mo  Mo2  1  0.66666667  0.33333333  0.28208136  1
  Se  Se3  1  0.33333333  0.66666667  0.32966204  1
  Se  Se4  1  0.33333333  0.66666667  0.70456150  1
  Se  Se5  1  0.66666667  0.33333333  0.04730773  1
  Se  Se6  1  0.66666667  0.33333333  0.42164338  1
  Se  Se7  1  0.66666667  0.33333333  0.14242544  1
  Se  Se8  1  0.66666667  0.33333333  0.51679953  1
  Se  Se9  1  0.33333333  0.66666667  0.23450106  1
  Se  Se10  1  0.33333333  0.66666667  0.60893172  1
  W  W11  1  0.66666667  0.33333333  0.65677599  1
