# generated using pymatgen
data_CdS
_symmetry_space_group_name_H-M   'P 1'
_cell_length_a   4.17177673
_cell_length_b   4.17177673
_cell_length_c   6.83352122
_cell_angle_alpha   90.00000000
_cell_angle_beta   90.00000000
_cell_angle_gamma   119.56301198
_symmetry_Int_Tables_number   1
_chemical_formula_structural   CdS
_chemical_formula_sum   'Cd2 S2'
_cell_volume   103.44580073
_cell_formula_units_Z   2
loop_
 _symmetry_equiv_pos_site_id
 _symmetry_equiv_pos_as_xyz
  1  'x, y, z'
loop_
 _atom_site_type_symbol
 _atom_site_label
 _atom_site_symmetry_multiplicity
 _atom_site_fract_x
 _atom_site_fract_y
 _atom_site_fract_z
 _atom_site_occupancy
  Cd  Cd0  1  0.16673282  0.83326718  0.53893375  1
  Cd  Cd1  1  0.83326718  0.16673282  0.03893375  1
  S  S2  1  0.16818384  0.83181616  0.16365214  1
  S  S3  1  0.83181616  0.16818384  0.66365214  1
