# generated using pymatgen
data_MoW3(SeS)4
_symmetry_space_group_name_H-M   'P 1'
_cell_length_a   3.25708432
_cell_length_b   3.25708432
_cell_length_c   34.59148390
_cell_angle_alpha   90.00000000
_cell_angle_beta   90.00000000
_cell_angle_gamma   120.00000000
_symmetry_Int_Tables_number   1
_chemical_formula_structural   MoW3(SeS)4
_chemical_formula_sum   'Mo1 W3 Se4 S4'
_cell_volume   317.80287930
_cell_formula_units_Z   1
loop_
 _symmetry_equiv_pos_site_id
 _symmetry_equiv_pos_as_xyz
  1  'x, y, z'
loop_
 _atom_site_type_symbol
 _atom_site_label
 _atom_site_symmetry_multiplicity
 _atom_site_fract_x
 _atom_site_fract_y
 _atom_site_fract_z
 _atom_site_occupancy
  Mo  Mo0  1  0.66666667  0.33333333  0.27931315  1
  S  S1  1  0.33333333  0.66666667  0.70317984  1
  S  S2  1  0.66666667  0.33333333  0.04838579  1
  S  S3  1  0.66666667  0.33333333  0.13819029  1
  S  S4  1  0.33333333  0.66666667  0.61337717  1
  Se  Se5  1  0.33333333  0.66666667  0.32841366  1
  Se  Se6  1  0.66666667  0.33333333  0.42262921  1
  Se  Se7  1  0.66666667  0.33333333  0.52143317  1
  Se  Se8  1  0.33333333  0.66666667  0.23022068  1
  W  W9  1  0.33333333  0.66666667  0.09326454  1
  W  W10  1  0.33333333  0.66666667  0.47203868  1
  W  W11  1  0.66666667  0.33333333  0.65830082  1
