# generated using pymatgen
data_W3(SeS2)2
_symmetry_space_group_name_H-M   'P 1'
_cell_length_a   3.23577637
_cell_length_b   3.23577637
_cell_length_c   27.94226039
_cell_angle_alpha   90.00000000
_cell_angle_beta   90.00000000
_cell_angle_gamma   120.00000000
_symmetry_Int_Tables_number   1
_chemical_formula_structural   W3(SeS2)2
_chemical_formula_sum   'W3 Se2 S4'
_cell_volume   253.36648482
_cell_formula_units_Z   1
loop_
 _symmetry_equiv_pos_site_id
 _symmetry_equiv_pos_as_xyz
  1  'x, y, z'
loop_
 _atom_site_type_symbol
 _atom_site_label
 _atom_site_symmetry_multiplicity
 _atom_site_fract_x
 _atom_site_fract_y
 _atom_site_fract_z
 _atom_site_occupancy
  S  S0  1  0.00000000  0.00000000  0.71288516  1
  S  S1  1  0.00000000  0.00000000  0.17543451  1
  S  S2  1  0.00000000  0.00000000  0.82456549  1
  S  S3  1  0.00000000  0.00000000  0.28711484  1
  Se  Se4  1  0.66666667  0.33333333  0.06144566  1
  Se  Se5  1  0.66666667  0.33333333  0.93855434  1
  W  W6  1  0.66666667  0.33333333  0.76869546  1
  W  W7  1  0.66666667  0.33333333  0.23130454  1
  W  W8  1  0.00000000  0.00000000  0.00000000  1
