# generated using pymatgen
data_Ca(DyS2)2
_symmetry_space_group_name_H-M   'P 1'
_cell_length_a   7.23214247
_cell_length_b   7.23214247
_cell_length_c   7.23214247
_cell_angle_alpha   109.50409352
_cell_angle_beta   109.50409352
_cell_angle_gamma   109.40549485
_symmetry_Int_Tables_number   1
_chemical_formula_structural   Ca(DyS2)2
_chemical_formula_sum   'Ca2 Dy4 S8'
_cell_volume   291.19143701
_cell_formula_units_Z   2
loop_
 _symmetry_equiv_pos_site_id
 _symmetry_equiv_pos_as_xyz
  1  'x, y, z'
loop_
 _atom_site_type_symbol
 _atom_site_label
 _atom_site_symmetry_multiplicity
 _atom_site_fract_x
 _atom_site_fract_y
 _atom_site_fract_z
 _atom_site_occupancy
  Ca  Ca0  1  0.25000000  0.75000000  0.50000000  1
  Ca  Ca1  1  0.50000000  0.50000000  0.00000000  1
  Dy  Dy2  1  0.87500000  0.25278078  0.87778078  1
  Dy  Dy3  1  0.00278078  0.12500000  0.37778078  1
  Dy  Dy4  1  0.37500000  0.99721922  0.12221922  1
  Dy  Dy5  1  0.74721922  0.62500000  0.62221922  1
  S  S6  1  0.48693254  0.23736735  0.60588551  1
  S  S7  1  0.63148185  0.88104703  0.39411449  1
  S  S8  1  0.11851815  0.01263265  0.74956518  1
  S  S9  1  0.98736735  0.73693254  0.10588551  1
  S  S10  1  0.63104703  0.88148185  0.89411449  1
  S  S11  1  0.76263265  0.36851815  0.24956518  1
  S  S12  1  0.11895297  0.51306746  0.75043482  1
  S  S13  1  0.26306746  0.36895297  0.25043482  1
