# generated using pymatgen
data_SiSe2
_symmetry_space_group_name_H-M   'P 1'
_cell_length_a   3.59529736
_cell_length_b   3.59529736
_cell_length_c   5.86731057
_cell_angle_alpha   90.00000000
_cell_angle_beta   90.00000000
_cell_angle_gamma   91.27076011
_symmetry_Int_Tables_number   1
_chemical_formula_structural   SiSe2
_chemical_formula_sum   'Si1 Se2'
_cell_volume   75.82316047
_cell_formula_units_Z   1
loop_
 _symmetry_equiv_pos_site_id
 _symmetry_equiv_pos_as_xyz
  1  'x, y, z'
loop_
 _atom_site_type_symbol
 _atom_site_label
 _atom_site_symmetry_multiplicity
 _atom_site_fract_x
 _atom_site_fract_y
 _atom_site_fract_z
 _atom_site_occupancy
  Se  Se0  1  0.00000000  0.50000000  0.25273274  1
  Se  Se1  1  0.50000000  0.00000000  0.74726726  1
  Si  Si2  1  0.50000000  0.50000000  0.00000000  1
