# generated using pymatgen
data_TeWSe
_symmetry_space_group_name_H-M   'P 1'
_cell_length_a   3.44280346
_cell_length_b   3.44280346
_cell_length_c   23.03161052
_cell_angle_alpha   90.00000000
_cell_angle_beta   90.00000000
_cell_angle_gamma   120.00000000
_symmetry_Int_Tables_number   1
_chemical_formula_structural   TeWSe
_chemical_formula_sum   'Te2 W2 Se2'
_cell_volume   236.41738066
_cell_formula_units_Z   2
loop_
 _symmetry_equiv_pos_site_id
 _symmetry_equiv_pos_as_xyz
  1  'x, y, z'
loop_
 _atom_site_type_symbol
 _atom_site_label
 _atom_site_symmetry_multiplicity
 _atom_site_fract_x
 _atom_site_fract_y
 _atom_site_fract_z
 _atom_site_occupancy
  Se  Se0  1  0.66666667  0.33333333  0.08032824  1
  Se  Se1  1  0.66666667  0.33333333  0.22287465  1
  Te  Te2  1  0.33333333  0.66666667  0.53134747  1
  Te  Te3  1  0.33333333  0.66666667  0.36918390  1
  W  W4  1  0.33333333  0.66666667  0.15154075  1
  W  W5  1  0.66666667  0.33333333  0.45032799  1
