# generated using pymatgen
data_HgSO4
_symmetry_space_group_name_H-M   'P 1'
_cell_length_a   6.67966047
_cell_length_b   4.80884321
_cell_length_c   4.87531474
_cell_angle_alpha   90.00000000
_cell_angle_beta   90.00000000
_cell_angle_gamma   90.00000000
_symmetry_Int_Tables_number   1
_chemical_formula_structural   HgSO4
_chemical_formula_sum   'Hg2 S2 O8'
_cell_volume   156.60212926
_cell_formula_units_Z   2
loop_
 _symmetry_equiv_pos_site_id
 _symmetry_equiv_pos_as_xyz
  1  'x, y, z'
loop_
 _atom_site_type_symbol
 _atom_site_label
 _atom_site_symmetry_multiplicity
 _atom_site_fract_x
 _atom_site_fract_y
 _atom_site_fract_z
 _atom_site_occupancy
  Hg  Hg0  1  0.50000000  0.17759809  0.83088286  1
  Hg  Hg1  1  0.00000000  0.82240191  0.33088286  1
  O  O2  1  0.50000000  0.71481609  0.62056547  1
  O  O3  1  0.00000000  0.28518391  0.12056547  1
  O  O4  1  0.50000000  0.36780739  0.26973732  1
  O  O5  1  0.00000000  0.63219261  0.76973732  1
  O  O6  1  0.67683041  0.80959772  0.18257394  1
  O  O7  1  0.17683041  0.19040228  0.68257394  1
  O  O8  1  0.32316959  0.80959772  0.18257394  1
  O  O9  1  0.82316959  0.19040228  0.68257394  1
  S  S10  1  0.50000000  0.67411156  0.31849959  1
  S  S11  1  0.00000000  0.32588844  0.81849959  1
