# generated using pymatgen
data_Mo3W(SeS)4
_symmetry_space_group_name_H-M   'P 1'
_cell_length_a   3.25885463
_cell_length_b   3.25885463
_cell_length_c   25.68551716
_cell_angle_alpha   90.00000000
_cell_angle_beta   90.00000000
_cell_angle_gamma   120.00000000
_symmetry_Int_Tables_number   1
_chemical_formula_structural   Mo3W(SeS)4
_chemical_formula_sum   'Mo3 W1 Se4 S4'
_cell_volume   236.23754562
_cell_formula_units_Z   1
loop_
 _symmetry_equiv_pos_site_id
 _symmetry_equiv_pos_as_xyz
  1  'x, y, z'
loop_
 _atom_site_type_symbol
 _atom_site_label
 _atom_site_symmetry_multiplicity
 _atom_site_fract_x
 _atom_site_fract_y
 _atom_site_fract_z
 _atom_site_occupancy
  Mo  Mo0  1  0.33333333  0.66666667  0.00565606  1
  Mo  Mo1  1  0.33333333  0.66666667  0.49595960  1
  Mo  Mo2  1  0.66666667  0.33333333  0.25529365  1
  S  S3  1  0.33333333  0.66666667  0.31545388  1
  S  S4  1  0.66666667  0.33333333  0.43579827  1
  S  S5  1  0.66666667  0.33333333  0.55614714  1
  S  S6  1  0.33333333  0.66666667  0.19510376  1
  Se  Se7  1  0.33333333  0.66666667  0.81252504  1
  Se  Se8  1  0.66666667  0.33333333  0.93955104  1
  Se  Se9  1  0.66666667  0.33333333  0.07174504  1
  Se  Se10  1  0.33333333  0.66666667  0.67950699  1
  W  W11  1  0.66666667  0.33333333  0.74600652  1
