# generated using pymatgen
data_ZnSeO4
_symmetry_space_group_name_H-M   'P 1'
_cell_length_a   6.01072648
_cell_length_b   4.95274707
_cell_length_c   4.84803809
_cell_angle_alpha   90.00000000
_cell_angle_beta   90.00000000
_cell_angle_gamma   90.00000000
_symmetry_Int_Tables_number   1
_chemical_formula_structural   ZnSeO4
_chemical_formula_sum   'Zn2 Se2 O8'
_cell_volume   144.32419315
_cell_formula_units_Z   2
loop_
 _symmetry_equiv_pos_site_id
 _symmetry_equiv_pos_as_xyz
  1  'x, y, z'
loop_
 _atom_site_type_symbol
 _atom_site_label
 _atom_site_symmetry_multiplicity
 _atom_site_fract_x
 _atom_site_fract_y
 _atom_site_fract_z
 _atom_site_occupancy
  O  O0  1  0.00000000  0.33435693  0.62464120  1
  O  O1  1  0.00000000  0.68560083  0.18232496  1
  O  O2  1  0.78433146  0.82406989  0.66711426  1
  O  O3  1  0.71566854  0.17593011  0.16711426  1
  O  O4  1  0.50000000  0.31439917  0.68232496  1
  O  O5  1  0.50000000  0.66564307  0.12464120  1
  O  O6  1  0.28433146  0.17593011  0.16711426  1
  O  O7  1  0.21566854  0.82406989  0.66711426  1
  Se  Se8  1  0.00000000  0.65133138  0.52221659  1
  Se  Se9  1  0.50000000  0.34866862  0.02221659  1
  Zn  Zn10  1  0.00000000  0.06809870  0.96466473  1
  Zn  Zn11  1  0.50000000  0.93190130  0.46466473  1
