# generated using pymatgen
data_MoW3(Se3S)2
_symmetry_space_group_name_H-M   'P 1'
_cell_length_a   3.29170669
_cell_length_b   3.29170669
_cell_length_c   35.04861009
_cell_angle_alpha   90.00000000
_cell_angle_beta   90.00000000
_cell_angle_gamma   120.00000000
_symmetry_Int_Tables_number   1
_chemical_formula_structural   MoW3(Se3S)2
_chemical_formula_sum   'Mo1 W3 Se6 S2'
_cell_volume   328.88471581
_cell_formula_units_Z   1
loop_
 _symmetry_equiv_pos_site_id
 _symmetry_equiv_pos_as_xyz
  1  'x, y, z'
loop_
 _atom_site_type_symbol
 _atom_site_label
 _atom_site_symmetry_multiplicity
 _atom_site_fract_x
 _atom_site_fract_y
 _atom_site_fract_z
 _atom_site_occupancy
  Mo  Mo0  1  0.33333333  0.66666667  0.27941974  1
  S  S1  1  0.33333333  0.66666667  0.05268839  1
  S  S2  1  0.33333333  0.66666667  0.14068119  1
  Se  Se3  1  0.00000000  0.00000000  0.32751698  1
  Se  Se4  1  0.00000000  0.00000000  0.70653677  1
  Se  Se5  1  0.33333333  0.66666667  0.42024728  1
  Se  Se6  1  0.33333333  0.66666667  0.51701304  1
  Se  Se7  1  0.00000000  0.00000000  0.23132408  1
  Se  Se8  1  0.00000000  0.00000000  0.60981763  1
  W  W9  1  0.00000000  0.00000000  0.09666318  1
  W  W10  1  0.00000000  0.00000000  0.46863366  1
  W  W11  1  0.33333333  0.66666667  0.65820707  1
