# generated using pymatgen
data_NaLiCdS2
_symmetry_space_group_name_H-M   'P 1'
_cell_length_a   4.12413405
_cell_length_b   4.12413405
_cell_length_c   6.98652622
_cell_angle_alpha   90.00000000
_cell_angle_beta   90.00000000
_cell_angle_gamma   120.00000000
_symmetry_Int_Tables_number   1
_chemical_formula_structural   NaLiCdS2
_chemical_formula_sum   'Na1 Li1 Cd1 S2'
_cell_volume   102.90997444
_cell_formula_units_Z   1
loop_
 _symmetry_equiv_pos_site_id
 _symmetry_equiv_pos_as_xyz
  1  'x, y, z'
loop_
 _atom_site_type_symbol
 _atom_site_label
 _atom_site_symmetry_multiplicity
 _atom_site_fract_x
 _atom_site_fract_y
 _atom_site_fract_z
 _atom_site_occupancy
  Cd  Cd0  1  0.00000000  0.00000000  0.37892716  1
  Li  Li1  1  0.66666667  0.33333333  0.67131361  1
  Na  Na2  1  0.33333333  0.66666667  0.97528479  1
  S  S3  1  0.66666667  0.33333333  0.23348636  1
  S  S4  1  0.00000000  0.00000000  0.74098908  1
