# generated using pymatgen
data_Mo3W(SeS3)2
_symmetry_space_group_name_H-M   'P 1'
_cell_length_a   3.22342916
_cell_length_b   3.22342916
_cell_length_c   34.04242091
_cell_angle_alpha   90.00000000
_cell_angle_beta   90.00000000
_cell_angle_gamma   120.00000000
_symmetry_Int_Tables_number   1
_chemical_formula_structural   Mo3W(SeS3)2
_chemical_formula_sum   'Mo3 W1 Se2 S6'
_cell_volume   306.32844665
_cell_formula_units_Z   1
loop_
 _symmetry_equiv_pos_site_id
 _symmetry_equiv_pos_as_xyz
  1  'x, y, z'
loop_
 _atom_site_type_symbol
 _atom_site_label
 _atom_site_symmetry_multiplicity
 _atom_site_fract_x
 _atom_site_fract_y
 _atom_site_fract_z
 _atom_site_occupancy
  Mo  Mo0  1  0.33333333  0.66666667  0.09338183  1
  Mo  Mo1  1  0.33333333  0.66666667  0.47194359  1
  Mo  Mo2  1  0.66666667  0.33333333  0.28267912  1
  S  S3  1  0.33333333  0.66666667  0.70084213  1
  S  S4  1  0.66666667  0.33333333  0.04770043  1
  S  S5  1  0.66666667  0.33333333  0.42620741  1
  S  S6  1  0.66666667  0.33333333  0.13912349  1
  S  S7  1  0.66666667  0.33333333  0.51765965  1
  S  S8  1  0.33333333  0.66666667  0.60893973  1
  Se  Se9  1  0.33333333  0.66666667  0.33293518  1
  Se  Se10  1  0.33333333  0.66666667  0.23242506  1
  W  W11  1  0.66666667  0.33333333  0.65490837  1
