# generated using pymatgen
data_Sr(PrS2)2
_symmetry_space_group_name_H-M   'P 1'
_cell_length_a   7.55477785
_cell_length_b   7.55477785
_cell_length_c   7.55477785
_cell_angle_alpha   109.44188684
_cell_angle_beta   109.44188684
_cell_angle_gamma   109.52990416
_symmetry_Int_Tables_number   1
_chemical_formula_structural   Sr(PrS2)2
_chemical_formula_sum   'Sr2 Pr4 S8'
_cell_volume   331.92721488
_cell_formula_units_Z   2
loop_
 _symmetry_equiv_pos_site_id
 _symmetry_equiv_pos_as_xyz
  1  'x, y, z'
loop_
 _atom_site_type_symbol
 _atom_site_label
 _atom_site_symmetry_multiplicity
 _atom_site_fract_x
 _atom_site_fract_y
 _atom_site_fract_z
 _atom_site_occupancy
  Pr  Pr0  1  0.37500000  0.99713954  0.12213954  1
  Pr  Pr1  1  0.87500000  0.25286046  0.87786046  1
  Pr  Pr2  1  0.74713954  0.62500000  0.62213954  1
  Pr  Pr3  1  0.00286046  0.12500000  0.37786046  1
  S  S4  1  0.11707345  0.51964603  0.74943101  1
  S  S5  1  0.11764244  0.02021502  0.75056899  1
  S  S6  1  0.63292655  0.88235756  0.90257258  1
  S  S7  1  0.26964603  0.36707345  0.24943101  1
  S  S8  1  0.48035397  0.22978498  0.59742742  1
  S  S9  1  0.77021502  0.36764244  0.25056899  1
  S  S10  1  0.63235756  0.88292655  0.40257258  1
  S  S11  1  0.97978498  0.73035397  0.09742742  1
  Sr  Sr12  1  0.25000000  0.75000000  0.50000000  1
  Sr  Sr13  1  0.50000000  0.50000000  0.00000000  1
