# generated using pymatgen
data_Ga2S3
_symmetry_space_group_name_H-M   'P 1'
_cell_length_a   6.44084021
_cell_length_b   6.44084021
_cell_length_c   6.44084021
_cell_angle_alpha   146.70839986
_cell_angle_beta   60.38461002
_cell_angle_gamma   131.16940264
_symmetry_Int_Tables_number   1
_chemical_formula_structural   Ga2S3
_chemical_formula_sum   'Ga2 S3'
_cell_volume   109.38156620
_cell_formula_units_Z   1
loop_
 _symmetry_equiv_pos_site_id
 _symmetry_equiv_pos_as_xyz
  1  'x, y, z'
loop_
 _atom_site_type_symbol
 _atom_site_label
 _atom_site_symmetry_multiplicity
 _atom_site_fract_x
 _atom_site_fract_y
 _atom_site_fract_z
 _atom_site_occupancy
  Ga  Ga0  1  0.16694382  0.00813761  0.15880621  1
  Ga  Ga1  1  0.84933139  0.00813761  0.84119379  1
  S  S2  1  0.89815624  0.23623125  0.66192500  1
  S  S3  1  0.57430625  0.23623125  0.33807500  1
  S  S4  1  0.26126230  0.26126230  0.00000000  1
