# generated using pymatgen
data_Tl2SnHgSe4
_symmetry_space_group_name_H-M   'P 1'
_cell_length_a   6.72246227
_cell_length_b   6.72246227
_cell_length_c   6.72246227
_cell_angle_alpha   105.87103329
_cell_angle_beta   105.87103329
_cell_angle_gamma   116.93979985
_symmetry_Int_Tables_number   1
_chemical_formula_structural   Tl2SnHgSe4
_chemical_formula_sum   'Tl2 Sn1 Hg1 Se4'
_cell_volume   230.84692525
_cell_formula_units_Z   1
loop_
 _symmetry_equiv_pos_site_id
 _symmetry_equiv_pos_as_xyz
  1  'x, y, z'
loop_
 _atom_site_type_symbol
 _atom_site_label
 _atom_site_symmetry_multiplicity
 _atom_site_fract_x
 _atom_site_fract_y
 _atom_site_fract_z
 _atom_site_occupancy
  Hg  Hg0  1  0.50000000  0.50000000  0.00000000  1
  Se  Se1  1  0.94454034  0.94454034  0.35169998  1
  Se  Se2  1  0.59284036  0.59284036  0.64830002  1
  Se  Se3  1  0.05545966  0.40715964  -0.00000000  1
  Se  Se4  1  0.40715964  0.05545966  -0.00000000  1
  Sn  Sn5  1  0.00000000  0.00000000  0.00000000  1
  Tl  Tl6  1  0.50000000  0.00000000  0.50000000  1
  Tl  Tl7  1  0.00000000  0.50000000  0.50000000  1
