# generated using pymatgen
data_BeZnS2
_symmetry_space_group_name_H-M   'P 1'
_cell_length_a   6.34831420
_cell_length_b   6.34831420
_cell_length_c   6.34831420
_cell_angle_alpha   33.33130297
_cell_angle_beta   33.33130297
_cell_angle_gamma   33.33130297
_symmetry_Int_Tables_number   1
_chemical_formula_structural   BeZnS2
_chemical_formula_sum   'Be1 Zn1 S2'
_cell_volume   68.77966252
_cell_formula_units_Z   1
loop_
 _symmetry_equiv_pos_site_id
 _symmetry_equiv_pos_as_xyz
  1  'x, y, z'
loop_
 _atom_site_type_symbol
 _atom_site_label
 _atom_site_symmetry_multiplicity
 _atom_site_fract_x
 _atom_site_fract_y
 _atom_site_fract_z
 _atom_site_occupancy
  Be  Be0  1  0.49956124  0.49956124  0.49956124  1
  S  S1  1  0.86859307  0.86859307  0.86859307  1
  S  S2  1  0.38335040  0.38335040  0.38335040  1
  Zn  Zn3  1  0.99849429  0.99849429  0.99849429  1
