# generated using pymatgen
data_Rb2S3
_symmetry_space_group_name_H-M   'P 1'
_cell_length_a   6.41757442
_cell_length_b   6.41757442
_cell_length_c   7.63464040
_cell_angle_alpha   90.00000000
_cell_angle_beta   90.00000000
_cell_angle_gamma   108.68406656
_symmetry_Int_Tables_number   1
_chemical_formula_structural   Rb2S3
_chemical_formula_sum   'Rb4 S6'
_cell_volume   297.86376578
_cell_formula_units_Z   2
loop_
 _symmetry_equiv_pos_site_id
 _symmetry_equiv_pos_as_xyz
  1  'x, y, z'
loop_
 _atom_site_type_symbol
 _atom_site_label
 _atom_site_symmetry_multiplicity
 _atom_site_fract_x
 _atom_site_fract_y
 _atom_site_fract_z
 _atom_site_occupancy
  Rb  Rb0  1  0.57244531  0.42755469  0.18670431  1
  Rb  Rb1  1  0.42755469  0.57244531  0.68670431  1
  Rb  Rb2  1  0.10434150  0.89565850  0.46128142  1
  Rb  Rb3  1  0.89565850  0.10434150  0.96128142  1
  S  S4  1  0.06412809  0.38708978  0.34661740  1
  S  S5  1  0.93587191  0.61291022  0.84661740  1
  S  S6  1  0.61291022  0.93587191  0.34661740  1
  S  S7  1  0.38708978  0.06412809  0.84661740  1
  S  S8  1  0.20571083  0.79428917  0.00137947  1
  S  S9  1  0.79428917  0.20571083  0.50137947  1
