# generated using pymatgen
data_Cu2SiS3
_symmetry_space_group_name_H-M   'P 1'
_cell_length_a   6.36675964
_cell_length_b   6.36675964
_cell_length_c   6.10435714
_cell_angle_alpha   90.00000000
_cell_angle_beta   90.00000000
_cell_angle_gamma   60.46183020
_symmetry_Int_Tables_number   1
_chemical_formula_structural   Cu2SiS3
_chemical_formula_sum   'Cu4 Si2 S6'
_cell_volume   215.28303235
_cell_formula_units_Z   2
loop_
 _symmetry_equiv_pos_site_id
 _symmetry_equiv_pos_as_xyz
  1  'x, y, z'
loop_
 _atom_site_type_symbol
 _atom_site_label
 _atom_site_symmetry_multiplicity
 _atom_site_fract_x
 _atom_site_fract_y
 _atom_site_fract_z
 _atom_site_occupancy
  Cu  Cu0  1  0.67575884  0.00148151  0.98012265  1
  Cu  Cu1  1  0.32424116  0.99851849  0.48012265  1
  Cu  Cu2  1  0.00148151  0.67575884  0.48012265  1
  Cu  Cu3  1  0.99851849  0.32424116  0.98012265  1
  S  S4  1  0.66099658  0.01590146  0.60559733  1
  S  S5  1  0.33900342  0.98409854  0.10559733  1
  S  S6  1  0.65450731  0.34549269  0.13917433  1
  S  S7  1  0.34549269  0.65450731  0.63917433  1
  S  S8  1  0.98409854  0.33900342  0.60559733  1
  S  S9  1  0.01590146  0.66099658  0.10559733  1
  Si  Si10  1  0.33100735  0.66899265  0.01038571  1
  Si  Si11  1  0.66899265  0.33100735  0.51038571  1
