# generated using pymatgen
data_Mo3W(SeS)4
_symmetry_space_group_name_H-M   'P 1'
_cell_length_a   3.25786083
_cell_length_b   3.25786083
_cell_length_c   33.84662034
_cell_angle_alpha   90.00000000
_cell_angle_beta   90.00000000
_cell_angle_gamma   120.00000000
_symmetry_Int_Tables_number   1
_chemical_formula_structural   Mo3W(SeS)4
_chemical_formula_sum   'Mo3 W1 Se4 S4'
_cell_volume   311.10787060
_cell_formula_units_Z   1
loop_
 _symmetry_equiv_pos_site_id
 _symmetry_equiv_pos_as_xyz
  1  'x, y, z'
loop_
 _atom_site_type_symbol
 _atom_site_label
 _atom_site_symmetry_multiplicity
 _atom_site_fract_x
 _atom_site_fract_y
 _atom_site_fract_z
 _atom_site_occupancy
  Mo  Mo0  1  0.00000000  0.00000000  0.09478959  1
  Mo  Mo1  1  0.00000000  0.00000000  0.46684450  1
  Mo  Mo2  1  0.33333333  0.66666667  0.27741825  1
  S  S3  1  0.00000000  0.00000000  0.32310420  1
  S  S4  1  0.33333333  0.66666667  0.04915690  1
  S  S5  1  0.33333333  0.66666667  0.14046177  1
  S  S6  1  0.00000000  0.00000000  0.23175638  1
  Se  Se7  1  0.00000000  0.00000000  0.71428852  1
  Se  Se8  1  0.33333333  0.66666667  0.41668098  1
  Se  Se9  1  0.33333333  0.66666667  0.51702129  1
  Se  Se10  1  0.00000000  0.00000000  0.61336452  1
  W  W11  1  0.33333333  0.66666667  0.66386112  1
