# generated using pymatgen
data_Pm2MgSe4
_symmetry_space_group_name_H-M   'P 1'
_cell_length_a   7.63872934
_cell_length_b   7.63872934
_cell_length_c   7.63872934
_cell_angle_alpha   111.03267019
_cell_angle_beta   111.03267019
_cell_angle_gamma   106.39152517
_symmetry_Int_Tables_number   1
_chemical_formula_structural   Pm2MgSe4
_chemical_formula_sum   'Pm4 Mg2 Se8'
_cell_volume   342.37800067
_cell_formula_units_Z   2
loop_
 _symmetry_equiv_pos_site_id
 _symmetry_equiv_pos_as_xyz
  1  'x, y, z'
loop_
 _atom_site_type_symbol
 _atom_site_label
 _atom_site_symmetry_multiplicity
 _atom_site_fract_x
 _atom_site_fract_y
 _atom_site_fract_z
 _atom_site_occupancy
  Mg  Mg0  1  0.75000000  0.25000000  0.50000000  1
  Mg  Mg1  1  0.00000000  0.00000000  0.00000000  1
  Pm  Pm2  1  0.37500000  0.50084624  0.62584624  1
  Pm  Pm3  1  0.49915376  0.12500000  0.87415376  1
  Pm  Pm4  1  0.87500000  0.74915376  0.37415376  1
  Pm  Pm5  1  0.25084624  0.62500000  0.12584624  1
  Se  Se6  1  0.63920877  0.87409961  0.62873967  1
  Se  Se7  1  0.12590039  0.75464006  0.76510917  1
  Se  Se8  1  0.24535994  0.01046911  0.37126033  1
  Se  Se9  1  0.98953089  0.36079123  0.23489083  1
  Se  Se10  1  0.11079123  0.23953089  0.73489083  1
  Se  Se11  1  0.62409961  0.88920877  0.12873967  1
  Se  Se12  1  0.50464006  0.37590039  0.26510917  1
  Se  Se13  1  0.76046911  0.49535994  0.87126033  1
