# generated using pymatgen
data_SrBeSe
_symmetry_space_group_name_H-M   'P 1'
_cell_length_a   4.75595203
_cell_length_b   4.75595203
_cell_length_c   7.83136338
_cell_angle_alpha   90.00000000
_cell_angle_beta   90.00000000
_cell_angle_gamma   90.00000000
_symmetry_Int_Tables_number   1
_chemical_formula_structural   SrBeSe
_chemical_formula_sum   'Sr1 Be1 Se1'
_cell_volume   177.13823260
_cell_formula_units_Z   1
loop_
 _symmetry_equiv_pos_site_id
 _symmetry_equiv_pos_as_xyz
  1  'x, y, z'
loop_
 _atom_site_type_symbol
 _atom_site_label
 _atom_site_symmetry_multiplicity
 _atom_site_fract_x
 _atom_site_fract_y
 _atom_site_fract_z
 _atom_site_occupancy
  Be  Be0  1  0.00000000  0.00000000  0.47804915  1
  Se  Se1  1  0.00000000  0.00000000  0.73113414  1
  Sr  Sr2  1  0.00000000  0.00000000  0.08542172  1
