# generated using pymatgen
data_KGaTe2
_symmetry_space_group_name_H-M   'P 1'
_cell_length_a   7.23594755
_cell_length_b   7.23594755
_cell_length_c   7.23594755
_cell_angle_alpha   113.50877266
_cell_angle_beta   113.50877266
_cell_angle_gamma   101.66686989
_symmetry_Int_Tables_number   1
_chemical_formula_structural   KGaTe2
_chemical_formula_sum   'K2 Ga2 Te4'
_cell_volume   287.67150643
_cell_formula_units_Z   2
loop_
 _symmetry_equiv_pos_site_id
 _symmetry_equiv_pos_as_xyz
  1  'x, y, z'
loop_
 _atom_site_type_symbol
 _atom_site_label
 _atom_site_symmetry_multiplicity
 _atom_site_fract_x
 _atom_site_fract_y
 _atom_site_fract_z
 _atom_site_occupancy
  Ga  Ga0  1  0.25000000  0.75000000  0.50000000  1
  Ga  Ga1  1  0.50000000  0.50000000  0.00000000  1
  K  K2  1  0.75000000  0.25000000  0.50000000  1
  K  K3  1  0.00000000  0.00000000  0.00000000  1
  Te  Te4  1  0.37500000  0.45668202  0.58168202  1
  Te  Te5  1  0.54331798  0.12500000  0.91831798  1
  Te  Te6  1  0.20668202  0.62500000  0.08168202  1
  Te  Te7  1  0.87500000  0.79331798  0.41831798  1
