# generated using pymatgen
data_Te4W3Se2
_symmetry_space_group_name_H-M   'P 1'
_cell_length_a   3.48448949
_cell_length_b   3.48448949
_cell_length_c   30.37942327
_cell_angle_alpha   90.00000000
_cell_angle_beta   90.00000000
_cell_angle_gamma   120.00000000
_symmetry_Int_Tables_number   1
_chemical_formula_structural   Te4W3Se2
_chemical_formula_sum   'Te4 W3 Se2'
_cell_volume   319.43939487
_cell_formula_units_Z   1
loop_
 _symmetry_equiv_pos_site_id
 _symmetry_equiv_pos_as_xyz
  1  'x, y, z'
loop_
 _atom_site_type_symbol
 _atom_site_label
 _atom_site_symmetry_multiplicity
 _atom_site_fract_x
 _atom_site_fract_y
 _atom_site_fract_z
 _atom_site_occupancy
  Se  Se0  1  0.33333333  0.66666667  0.06397739  1
  Se  Se1  1  0.33333333  0.66666667  0.17116989  1
  Te  Te2  1  0.00000000  0.00000000  0.40366999  1
  Te  Te3  1  0.33333333  0.66666667  0.51972743  1
  Te  Te4  1  0.33333333  0.66666667  0.64156975  1
  Te  Te5  1  0.00000000  0.00000000  0.28177227  1
  W  W6  1  0.00000000  0.00000000  0.11753170  1
  W  W7  1  0.00000000  0.00000000  0.58070685  1
  W  W8  1  0.33333333  0.66666667  0.34271473  1
