# generated using pymatgen
data_TlAg2PS4
_symmetry_space_group_name_H-M   'P 1'
_cell_length_a   6.24541515
_cell_length_b   6.24541515
_cell_length_c   6.24541515
_cell_angle_alpha   115.29564157
_cell_angle_beta   115.29564157
_cell_angle_gamma   98.36170666
_symmetry_Int_Tables_number   1
_chemical_formula_structural   TlAg2PS4
_chemical_formula_sum   'Tl1 Ag2 P1 S4'
_cell_volume   182.39389258
_cell_formula_units_Z   1
loop_
 _symmetry_equiv_pos_site_id
 _symmetry_equiv_pos_as_xyz
  1  'x, y, z'
loop_
 _atom_site_type_symbol
 _atom_site_label
 _atom_site_symmetry_multiplicity
 _atom_site_fract_x
 _atom_site_fract_y
 _atom_site_fract_z
 _atom_site_occupancy
  Ag  Ag0  1  0.25000000  0.75000000  0.50000000  1
  Ag  Ag1  1  0.75000000  0.25000000  0.50000000  1
  P  P2  1  0.00000000  0.00000000  0.00000000  1
  S  S3  1  0.95900308  0.95900308  0.63580501  1
  S  S4  1  0.32319807  0.32319807  0.36419499  1
  S  S5  1  0.04099692  0.67680193  -0.00000000  1
  S  S6  1  0.67680193  0.04099692  -0.00000000  1
  Tl  Tl7  1  0.50000000  0.50000000  0.00000000  1
