# generated using pymatgen
data_Te4Mo3WSe4
_symmetry_space_group_name_H-M   'P 1'
_cell_length_a   3.44598003
_cell_length_b   3.44598003
_cell_length_c   36.16643794
_cell_angle_alpha   90.00000000
_cell_angle_beta   90.00000000
_cell_angle_gamma   120.00000000
_symmetry_Int_Tables_number   1
_chemical_formula_structural   Te4Mo3WSe4
_chemical_formula_sum   'Te4 Mo3 W1 Se4'
_cell_volume   371.93057475
_cell_formula_units_Z   1
loop_
 _symmetry_equiv_pos_site_id
 _symmetry_equiv_pos_as_xyz
  1  'x, y, z'
loop_
 _atom_site_type_symbol
 _atom_site_label
 _atom_site_symmetry_multiplicity
 _atom_site_fract_x
 _atom_site_fract_y
 _atom_site_fract_z
 _atom_site_occupancy
  Mo  Mo0  1  0.00000000  0.00000000  0.09147505  1
  Mo  Mo1  1  0.00000000  0.00000000  0.47047393  1
  Mo  Mo2  1  0.33333333  0.66666667  0.66000331  1
  Se  Se3  1  0.33333333  0.66666667  0.04632853  1
  Se  Se4  1  0.33333333  0.66666667  0.42525544  1
  Se  Se5  1  0.33333333  0.66666667  0.13670635  1
  Se  Se6  1  0.33333333  0.66666667  0.51570145  1
  Te  Te7  1  0.00000000  0.00000000  0.33260545  1
  Te  Te8  1  0.00000000  0.00000000  0.71132696  1
  Te  Te9  1  0.00000000  0.00000000  0.22931425  1
  Te  Te10  1  0.00000000  0.00000000  0.60859799  1
  W  W11  1  0.33333333  0.66666667  0.28095928  1
