# generated using pymatgen
data_CaSnS3
_symmetry_space_group_name_H-M   'P 1'
_cell_length_a   6.93943496
_cell_length_b   6.93943496
_cell_length_c   6.93943496
_cell_angle_alpha   90.17166216
_cell_angle_beta   120.42654997
_cell_angle_gamma   119.37808904
_symmetry_Int_Tables_number   1
_chemical_formula_structural   CaSnS3
_chemical_formula_sum   'Ca2 Sn2 S6'
_cell_volume   236.61957792
_cell_formula_units_Z   2
loop_
 _symmetry_equiv_pos_site_id
 _symmetry_equiv_pos_as_xyz
  1  'x, y, z'
loop_
 _atom_site_type_symbol
 _atom_site_label
 _atom_site_symmetry_multiplicity
 _atom_site_fract_x
 _atom_site_fract_y
 _atom_site_fract_z
 _atom_site_occupancy
  Ca  Ca0  1  0.56947754  0.78913120  0.28034634  1
  Ca  Ca1  1  0.50878486  0.28913120  0.71965366  1
  S  S2  1  0.80540807  0.18631912  0.11908894  1
  S  S3  1  0.06723018  0.68631912  0.88091106  1
  S  S4  1  0.02860806  0.84008784  0.34181769  1
  S  S5  1  0.49827015  0.68679037  0.65818231  1
  S  S6  1  0.02860806  0.18679037  0.68852022  1
  S  S7  1  0.49827015  0.34008784  0.31147978  1
  Sn  Sn8  1  0.00558805  0.50558805  0.50000000  1
  Sn  Sn9  1  0.00558805  0.00558805  0.00000000  1
