# generated using pymatgen
data_Cd(InSe2)2
_symmetry_space_group_name_H-M   'P 1'
_cell_length_a   7.25220241
_cell_length_b   7.25220241
_cell_length_c   7.25220241
_cell_angle_alpha   132.43192810
_cell_angle_beta   132.43192810
_cell_angle_gamma   69.54769295
_symmetry_Int_Tables_number   1
_chemical_formula_structural   Cd(InSe2)2
_chemical_formula_sum   'Cd1 In2 Se4'
_cell_volume   203.82863445
_cell_formula_units_Z   1
loop_
 _symmetry_equiv_pos_site_id
 _symmetry_equiv_pos_as_xyz
  1  'x, y, z'
loop_
 _atom_site_type_symbol
 _atom_site_label
 _atom_site_symmetry_multiplicity
 _atom_site_fract_x
 _atom_site_fract_y
 _atom_site_fract_z
 _atom_site_occupancy
  Cd  Cd0  1  0.50000000  0.50000000  0.00000000  1
  In  In1  1  0.25000000  0.75000000  0.50000000  1
  In  In2  1  0.75000000  0.25000000  0.50000000  1
  Se  Se3  1  0.33463747  0.89387091  -0.00000000  1
  Se  Se4  1  0.66536253  0.66536253  0.55923344  1
  Se  Se5  1  0.89387091  0.33463747  -0.00000000  1
  Se  Se6  1  0.10612909  0.10612909  0.44076656  1
