# generated using pymatgen
data_Te3MoWSe
_symmetry_space_group_name_H-M   'P 1'
_cell_length_a   3.50356330
_cell_length_b   3.50356330
_cell_length_c   36.98937105
_cell_angle_alpha   90.00000000
_cell_angle_beta   90.00000000
_cell_angle_gamma   120.00000000
_symmetry_Int_Tables_number   1
_chemical_formula_structural   Te3MoWSe
_chemical_formula_sum   'Te6 Mo2 W2 Se2'
_cell_volume   393.21268097
_cell_formula_units_Z   2
loop_
 _symmetry_equiv_pos_site_id
 _symmetry_equiv_pos_as_xyz
  1  'x, y, z'
loop_
 _atom_site_type_symbol
 _atom_site_label
 _atom_site_symmetry_multiplicity
 _atom_site_fract_x
 _atom_site_fract_y
 _atom_site_fract_z
 _atom_site_occupancy
  Mo  Mo0  1  0.00000000  0.00000000  0.09645158  1
  Mo  Mo1  1  0.33333333  0.66666667  0.66008972  1
  Se  Se2  1  0.00000000  0.00000000  0.32477520  1
  Se  Se3  1  0.00000000  0.00000000  0.23700665  1
  Te  Te4  1  0.00000000  0.00000000  0.70965379  1
  Te  Te5  1  0.33333333  0.66666667  0.04688212  1
  Te  Te6  1  0.33333333  0.66666667  0.41564207  1
  Te  Te7  1  0.33333333  0.66666667  0.14609064  1
  Te  Te8  1  0.33333333  0.66666667  0.51534428  1
  Te  Te9  1  0.00000000  0.00000000  0.61043370  1
  W  W10  1  0.00000000  0.00000000  0.46548451  1
  W  W11  1  0.33333333  0.66666667  0.28089475  1
