# generated using pymatgen
data_MoW(SeS)2
_symmetry_space_group_name_H-M   'P 1'
_cell_length_a   3.25618699
_cell_length_b   3.25618699
_cell_length_c   12.98444068
_cell_angle_alpha   90.00000000
_cell_angle_beta   90.00000000
_cell_angle_gamma   120.00000000
_symmetry_Int_Tables_number   1
_chemical_formula_structural   MoW(SeS)2
_chemical_formula_sum   'Mo1 W1 Se2 S2'
_cell_volume   119.22643319
_cell_formula_units_Z   1
loop_
 _symmetry_equiv_pos_site_id
 _symmetry_equiv_pos_as_xyz
  1  'x, y, z'
loop_
 _atom_site_type_symbol
 _atom_site_label
 _atom_site_symmetry_multiplicity
 _atom_site_fract_x
 _atom_site_fract_y
 _atom_site_fract_z
 _atom_site_occupancy
  Mo  Mo0  1  0.66666667  0.33333333  0.00000000  1
  S  S1  1  0.66666667  0.33333333  0.61957215  1
  S  S2  1  0.66666667  0.33333333  0.38042785  1
  Se  Se3  1  0.00000000  0.00000000  0.86916487  1
  Se  Se4  1  0.00000000  0.00000000  0.13083513  1
  W  W5  1  0.00000000  0.00000000  0.50000000  1
