# generated using pymatgen
data_MgCdTe2
_symmetry_space_group_name_H-M   'P 1'
_cell_length_a   7.99540310
_cell_length_b   7.99540310
_cell_length_c   7.99540310
_cell_angle_alpha   131.90063248
_cell_angle_beta   131.90063248
_cell_angle_gamma   70.38601242
_symmetry_Int_Tables_number   1
_chemical_formula_structural   MgCdTe2
_chemical_formula_sum   'Mg2 Cd2 Te4'
_cell_volume   277.48139953
_cell_formula_units_Z   2
loop_
 _symmetry_equiv_pos_site_id
 _symmetry_equiv_pos_as_xyz
  1  'x, y, z'
loop_
 _atom_site_type_symbol
 _atom_site_label
 _atom_site_symmetry_multiplicity
 _atom_site_fract_x
 _atom_site_fract_y
 _atom_site_fract_z
 _atom_site_occupancy
  Cd  Cd0  1  0.25000000  0.75000000  0.50000000  1
  Cd  Cd1  1  0.50000000  0.50000000  0.00000000  1
  Mg  Mg2  1  0.75000000  0.25000000  0.50000000  1
  Mg  Mg3  1  0.00000000  0.00000000  0.00000000  1
  Te  Te4  1  0.87500000  0.88253610  0.50753610  1
  Te  Te5  1  0.37500000  0.36746390  0.49246390  1
  Te  Te6  1  0.11746390  0.62500000  0.99246390  1
  Te  Te7  1  0.63253610  0.12500000  0.00753610  1
