# generated using pymatgen
data_In3AsSe3
_symmetry_space_group_name_H-M   'P 1'
_cell_length_a   4.20984394
_cell_length_b   16.75432324
_cell_length_c   5.96564674
_cell_angle_alpha   90.00000000
_cell_angle_beta   90.00000000
_cell_angle_gamma   90.00000000
_symmetry_Int_Tables_number   1
_chemical_formula_structural   In3AsSe3
_chemical_formula_sum   'In6 As2 Se6'
_cell_volume   420.77547601
_cell_formula_units_Z   2
loop_
 _symmetry_equiv_pos_site_id
 _symmetry_equiv_pos_as_xyz
  1  'x, y, z'
loop_
 _atom_site_type_symbol
 _atom_site_label
 _atom_site_symmetry_multiplicity
 _atom_site_fract_x
 _atom_site_fract_y
 _atom_site_fract_z
 _atom_site_occupancy
  As  As0  1  0.00000000  0.56709785  0.75065214  1
  As  As1  1  0.50000000  0.43290215  0.25065214  1
  In  In2  1  0.50000000  0.06530808  0.49641428  1
  In  In3  1  0.00000000  0.93469192  0.99641428  1
  In  In4  1  0.00000000  0.70048705  0.99417398  1
  In  In5  1  0.50000000  0.56699360  0.48576309  1
  In  In6  1  0.00000000  0.43300640  0.98576309  1
  In  In7  1  0.50000000  0.29951295  0.49417398  1
  Se  Se8  1  0.50000000  0.18189175  0.22017386  1
  Se  Se9  1  0.00000000  0.07322557  0.77809451  1
  Se  Se10  1  0.50000000  0.92677443  0.27809451  1
  Se  Se11  1  0.00000000  0.81810825  0.72017386  1
  Se  Se12  1  0.50000000  0.70611639  0.27472814  1
  Se  Se13  1  0.00000000  0.29388361  0.77472814  1
