# generated using pymatgen
data_Ge2SeS
_symmetry_space_group_name_H-M   'P 1'
_cell_length_a   3.79157734
_cell_length_b   4.45709495
_cell_length_c   10.91040244
_cell_angle_alpha   90.00000000
_cell_angle_beta   90.00000000
_cell_angle_gamma   90.00000000
_symmetry_Int_Tables_number   1
_chemical_formula_structural   Ge2SeS
_chemical_formula_sum   'Ge4 Se2 S2'
_cell_volume   184.37947588
_cell_formula_units_Z   2
loop_
 _symmetry_equiv_pos_site_id
 _symmetry_equiv_pos_as_xyz
  1  'x, y, z'
loop_
 _atom_site_type_symbol
 _atom_site_label
 _atom_site_symmetry_multiplicity
 _atom_site_fract_x
 _atom_site_fract_y
 _atom_site_fract_z
 _atom_site_occupancy
  Ge  Ge0  1  0.00000000  0.14254399  0.62779323  1
  Ge  Ge1  1  0.00000000  0.85745601  0.12779323  1
  Ge  Ge2  1  0.50000000  0.39660318  0.37863061  1
  Ge  Ge3  1  0.50000000  0.60339682  0.87863061  1
  S  S4  1  0.00000000  0.24622524  0.84830078  1
  S  S5  1  0.00000000  0.75377476  0.34830078  1
  Se  Se6  1  0.50000000  0.25122281  0.14527438  1
  Se  Se7  1  0.50000000  0.74877719  0.64527438  1
