# generated using pymatgen
data_CSO
_symmetry_space_group_name_H-M   'P 1'
_cell_length_a   3.98693799
_cell_length_b   3.98693799
_cell_length_c   3.98693799
_cell_angle_alpha   98.29808033
_cell_angle_beta   98.29808033
_cell_angle_gamma   98.29808033
_symmetry_Int_Tables_number   1
_chemical_formula_structural   CSO
_chemical_formula_sum   'C1 S1 O1'
_cell_volume   61.16598146
_cell_formula_units_Z   1
loop_
 _symmetry_equiv_pos_site_id
 _symmetry_equiv_pos_as_xyz
  1  'x, y, z'
loop_
 _atom_site_type_symbol
 _atom_site_label
 _atom_site_symmetry_multiplicity
 _atom_site_fract_x
 _atom_site_fract_y
 _atom_site_fract_z
 _atom_site_occupancy
  C  C0  1  0.79846969  0.79846969  0.79846969  1
  O  O1  1  0.00014120  0.00014120  0.00014120  1
  S  S2  1  0.53159012  0.53159012  0.53159012  1
