# generated using pymatgen
data_MoWSe4
_symmetry_space_group_name_H-M   'P 1'
_cell_length_a   3.32755470
_cell_length_b   3.32755470
_cell_length_c   35.22492377
_cell_angle_alpha   90.00000000
_cell_angle_beta   90.00000000
_cell_angle_gamma   120.00000000
_symmetry_Int_Tables_number   1
_chemical_formula_structural   MoWSe4
_chemical_formula_sum   'Mo2 W2 Se8'
_cell_volume   337.77779834
_cell_formula_units_Z   2
loop_
 _symmetry_equiv_pos_site_id
 _symmetry_equiv_pos_as_xyz
  1  'x, y, z'
loop_
 _atom_site_type_symbol
 _atom_site_label
 _atom_site_symmetry_multiplicity
 _atom_site_fract_x
 _atom_site_fract_y
 _atom_site_fract_z
 _atom_site_occupancy
  Mo  Mo0  1  0.00000000  0.00000000  0.09475371  1
  Mo  Mo1  1  0.00000000  0.00000000  0.46936907  1
  Se  Se2  1  0.00000000  0.00000000  0.32986545  1
  Se  Se3  1  0.00000000  0.00000000  0.70440346  1
  Se  Se4  1  0.33333333  0.66666667  0.04729947  1
  Se  Se5  1  0.33333333  0.66666667  0.42186559  1
  Se  Se6  1  0.33333333  0.66666667  0.14226759  1
  Se  Se7  1  0.33333333  0.66666667  0.51687356  1
  Se  Se8  1  0.00000000  0.00000000  0.23433533  1
  Se  Se9  1  0.00000000  0.00000000  0.60892186  1
  W  W10  1  0.33333333  0.66666667  0.28210000  1
  W  W11  1  0.33333333  0.66666667  0.65669191  1
