# generated using pymatgen
data_CuCSN
_symmetry_space_group_name_H-M   'P 1'
_cell_length_a   5.93341871
_cell_length_b   5.93341871
_cell_length_c   5.93341871
_cell_angle_alpha   37.43772785
_cell_angle_beta   37.43772785
_cell_angle_gamma   37.43772785
_symmetry_Int_Tables_number   1
_chemical_formula_structural   CuCSN
_chemical_formula_sum   'Cu1 C1 S1 N1'
_cell_volume   69.22073343
_cell_formula_units_Z   1
loop_
 _symmetry_equiv_pos_site_id
 _symmetry_equiv_pos_as_xyz
  1  'x, y, z'
loop_
 _atom_site_type_symbol
 _atom_site_label
 _atom_site_symmetry_multiplicity
 _atom_site_fract_x
 _atom_site_fract_y
 _atom_site_fract_z
 _atom_site_occupancy
  C  C0  1  0.18720639  0.18720639  0.18720639  1
  Cu  Cu1  1  0.00167536  0.00167536  0.00167536  1
  N  N2  1  0.11621663  0.11621663  0.11621663  1
  S  S3  1  0.28758162  0.28758162  0.28758162  1
