# generated using pymatgen
data_Mo3(Se2S)2
_symmetry_space_group_name_H-M   'P 1'
_cell_length_a   3.27959048
_cell_length_b   3.27959048
_cell_length_c   19.97100506
_cell_angle_alpha   90.00000000
_cell_angle_beta   90.00000000
_cell_angle_gamma   120.00000000
_symmetry_Int_Tables_number   1
_chemical_formula_structural   Mo3(Se2S)2
_chemical_formula_sum   'Mo3 Se4 S2'
_cell_volume   186.02434690
_cell_formula_units_Z   1
loop_
 _symmetry_equiv_pos_site_id
 _symmetry_equiv_pos_as_xyz
  1  'x, y, z'
loop_
 _atom_site_type_symbol
 _atom_site_label
 _atom_site_symmetry_multiplicity
 _atom_site_fract_x
 _atom_site_fract_y
 _atom_site_fract_z
 _atom_site_occupancy
  Mo  Mo0  1  0.66666667  0.33333333  0.67974297  1
  Mo  Mo1  1  0.66666667  0.33333333  0.32025703  1
  Mo  Mo2  1  0.00000000  0.00000000  0.00000000  1
  S  S3  1  0.66666667  0.33333333  0.07709439  1
  S  S4  1  0.66666667  0.33333333  0.92290561  1
  Se  Se5  1  0.00000000  0.00000000  0.59510648  1
  Se  Se6  1  0.00000000  0.00000000  0.23562590  1
  Se  Se7  1  0.00000000  0.00000000  0.76437410  1
  Se  Se8  1  0.00000000  0.00000000  0.40489352  1
