# generated using pymatgen
data_Mo(WS3)2
_symmetry_space_group_name_H-M   'P 1'
_cell_length_a   3.19239412
_cell_length_b   3.19239412
_cell_length_c   27.02865325
_cell_angle_alpha   90.00000000
_cell_angle_beta   90.00000000
_cell_angle_gamma   120.00000000
_symmetry_Int_Tables_number   1
_chemical_formula_structural   Mo(WS3)2
_chemical_formula_sum   'Mo1 W2 S6'
_cell_volume   238.55473613
_cell_formula_units_Z   1
loop_
 _symmetry_equiv_pos_site_id
 _symmetry_equiv_pos_as_xyz
  1  'x, y, z'
loop_
 _atom_site_type_symbol
 _atom_site_label
 _atom_site_symmetry_multiplicity
 _atom_site_fract_x
 _atom_site_fract_y
 _atom_site_fract_z
 _atom_site_occupancy
  Mo  Mo0  1  0.66666667  0.33333333  0.00000000  1
  S  S1  1  0.33333333  0.66666667  0.05794938  1
  S  S2  1  0.66666667  0.33333333  0.71043330  1
  S  S3  1  0.66666667  0.33333333  0.17302268  1
  S  S4  1  0.66666667  0.33333333  0.82697732  1
  S  S5  1  0.66666667  0.33333333  0.28956670  1
  S  S6  1  0.33333333  0.66666667  0.94205062  1
  W  W7  1  0.33333333  0.66666667  0.76868233  1
  W  W8  1  0.33333333  0.66666667  0.23131767  1
