# generated using pymatgen
data_SBr
_symmetry_space_group_name_H-M   'P 1'
_cell_length_a   13.98912512
_cell_length_b   4.12872137
_cell_length_c   4.12872137
_cell_angle_alpha   105.25369612
_cell_angle_beta   90.00000000
_cell_angle_gamma   90.00000000
_symmetry_Int_Tables_number   1
_chemical_formula_structural   SBr
_chemical_formula_sum   'S4 Br4'
_cell_volume   230.06240430
_cell_formula_units_Z   4
loop_
 _symmetry_equiv_pos_site_id
 _symmetry_equiv_pos_as_xyz
  1  'x, y, z'
loop_
 _atom_site_type_symbol
 _atom_site_label
 _atom_site_symmetry_multiplicity
 _atom_site_fract_x
 _atom_site_fract_y
 _atom_site_fract_z
 _atom_site_occupancy
  Br  Br0  1  0.16516197  0.94872003  0.06719349  1
  Br  Br1  1  0.83483803  0.06719349  0.94872003  1
  Br  Br2  1  0.33483803  0.44872003  0.56719349  1
  Br  Br3  1  0.66516197  0.56719349  0.44872003  1
  S  S4  1  0.04561397  0.58188176  0.80320471  1
  S  S5  1  0.95438603  0.80320471  0.58188176  1
  S  S6  1  0.45438603  0.08188176  0.30320471  1
  S  S7  1  0.54561397  0.30320471  0.08188176  1
