# generated using pymatgen
data_Ba(NdSe2)2
_symmetry_space_group_name_H-M   'P 1'
_cell_length_a   7.95628515
_cell_length_b   7.95628515
_cell_length_c   7.95628515
_cell_angle_alpha   109.38330797
_cell_angle_beta   109.38330797
_cell_angle_gamma   109.64718940
_symmetry_Int_Tables_number   1
_chemical_formula_structural   Ba(NdSe2)2
_chemical_formula_sum   'Ba2 Nd4 Se8'
_cell_volume   387.70915368
_cell_formula_units_Z   2
loop_
 _symmetry_equiv_pos_site_id
 _symmetry_equiv_pos_as_xyz
  1  'x, y, z'
loop_
 _atom_site_type_symbol
 _atom_site_label
 _atom_site_symmetry_multiplicity
 _atom_site_fract_x
 _atom_site_fract_y
 _atom_site_fract_z
 _atom_site_occupancy
  Ba  Ba0  1  0.00000000  0.00000000  0.00000000  1
  Ba  Ba1  1  0.75000000  0.25000000  0.50000000  1
  Nd  Nd2  1  0.37500000  0.74903632  0.87403632  1
  Nd  Nd3  1  0.25096368  0.12500000  0.62596368  1
  Nd  Nd4  1  0.87500000  0.50096368  0.12596368  1
  Nd  Nd5  1  0.49903632  0.62500000  0.37403632  1
  Se  Se6  1  0.48102610  0.23478258  0.09024983  1
  Se  Se7  1  0.98478258  0.73102610  0.59024983  1
  Se  Se8  1  0.60922374  0.51897390  0.75375649  1
  Se  Se9  1  0.76521742  0.85546725  0.24624351  1
  Se  Se10  1  0.14077626  0.39453275  0.40975017  1
  Se  Se11  1  0.26897390  0.85922374  0.25375649  1
  Se  Se12  1  0.60546725  0.01521742  0.74624351  1
  Se  Se13  1  0.14453275  0.39077626  0.90975017  1
