# generated using pymatgen
data_MoWSe3S
_symmetry_space_group_name_H-M   'P 1'
_cell_length_a   3.29279163
_cell_length_b   3.29279163
_cell_length_c   35.00757802
_cell_angle_alpha   90.00000000
_cell_angle_beta   90.00000000
_cell_angle_gamma   120.00000000
_symmetry_Int_Tables_number   1
_chemical_formula_structural   MoWSe3S
_chemical_formula_sum   'Mo2 W2 Se6 S2'
_cell_volume   328.71626625
_cell_formula_units_Z   2
loop_
 _symmetry_equiv_pos_site_id
 _symmetry_equiv_pos_as_xyz
  1  'x, y, z'
loop_
 _atom_site_type_symbol
 _atom_site_label
 _atom_site_symmetry_multiplicity
 _atom_site_fract_x
 _atom_site_fract_y
 _atom_site_fract_z
 _atom_site_occupancy
  Mo  Mo0  1  0.00000000  0.00000000  0.09672856  1
  Mo  Mo1  1  0.00000000  0.00000000  0.46872504  1
  S  S2  1  0.33333333  0.66666667  0.05291441  1
  S  S3  1  0.33333333  0.66666667  0.14059818  1
  Se  Se4  1  0.00000000  0.00000000  0.32774313  1
  Se  Se5  1  0.00000000  0.00000000  0.70652323  1
  Se  Se6  1  0.33333333  0.66666667  0.42057801  1
  Se  Se7  1  0.33333333  0.66666667  0.51687260  1
  Se  Se8  1  0.00000000  0.00000000  0.23089242  1
  Se  Se9  1  0.00000000  0.00000000  0.60971057  1
  W  W10  1  0.33333333  0.66666667  0.27931209  1
  W  W11  1  0.33333333  0.66666667  0.65814875  1
