# generated using pymatgen
data_In5AgSe8
_symmetry_space_group_name_H-M   'P 1'
_cell_length_a   5.85746614
_cell_length_b   5.85746614
_cell_length_c   11.83757656
_cell_angle_alpha   90.00000000
_cell_angle_beta   90.00000000
_cell_angle_gamma   90.00000000
_symmetry_Int_Tables_number   1
_chemical_formula_structural   In5AgSe8
_chemical_formula_sum   'In5 Ag1 Se8'
_cell_volume   406.14618128
_cell_formula_units_Z   1
loop_
 _symmetry_equiv_pos_site_id
 _symmetry_equiv_pos_as_xyz
  1  'x, y, z'
loop_
 _atom_site_type_symbol
 _atom_site_label
 _atom_site_symmetry_multiplicity
 _atom_site_fract_x
 _atom_site_fract_y
 _atom_site_fract_z
 _atom_site_occupancy
  Ag  Ag0  1  0.00000000  0.00000000  0.50000000  1
  In  In1  1  0.50000000  0.00000000  0.25546845  1
  In  In2  1  0.50000000  0.00000000  0.74453155  1
  In  In3  1  0.00000000  0.50000000  0.74453155  1
  In  In4  1  0.00000000  0.50000000  0.25546845  1
  In  In5  1  0.50000000  0.50000000  0.00000000  1
  Se  Se6  1  0.77708059  0.77708059  0.11123738  1
  Se  Se7  1  0.27707006  0.72292994  0.38583668  1
  Se  Se8  1  0.72292994  0.72292994  0.61416332  1
  Se  Se9  1  0.72292994  0.27707006  0.38583668  1
  Se  Se10  1  0.77708059  0.22291941  0.88876262  1
  Se  Se11  1  0.27707006  0.27707006  0.61416332  1
  Se  Se12  1  0.22291941  0.22291941  0.11123738  1
  Se  Se13  1  0.22291941  0.77708059  0.88876262  1
