# generated using pymatgen
data_Te8Mo3W
_symmetry_space_group_name_H-M   'P 1'
_cell_length_a   3.56821735
_cell_length_b   3.56821735
_cell_length_c   38.02547007
_cell_angle_alpha   90.00000000
_cell_angle_beta   90.00000000
_cell_angle_gamma   120.00000000
_symmetry_Int_Tables_number   1
_chemical_formula_structural   Te8Mo3W
_chemical_formula_sum   'Te8 Mo3 W1'
_cell_volume   419.28355136
_cell_formula_units_Z   1
loop_
 _symmetry_equiv_pos_site_id
 _symmetry_equiv_pos_as_xyz
  1  'x, y, z'
loop_
 _atom_site_type_symbol
 _atom_site_label
 _atom_site_symmetry_multiplicity
 _atom_site_fract_x
 _atom_site_fract_y
 _atom_site_fract_z
 _atom_site_occupancy
  Mo  Mo0  1  0.00000000  0.00000000  0.09458297  1
  Mo  Mo1  1  0.33333333  0.66666667  0.28190922  1
  Mo  Mo2  1  0.33333333  0.66666667  0.65696543  1
  Te  Te3  1  0.00000000  0.00000000  0.32955993  1
  Te  Te4  1  0.00000000  0.00000000  0.70455169  1
  Te  Te5  1  0.33333333  0.66666667  0.04699706  1
  Te  Te6  1  0.33333333  0.66666667  0.42163610  1
  Te  Te7  1  0.33333333  0.66666667  0.14225774  1
  Te  Te8  1  0.33333333  0.66666667  0.51728039  1
  Te  Te9  1  0.00000000  0.00000000  0.23425030  1
  Te  Te10  1  0.00000000  0.00000000  0.60929883  1
  W  W11  1  0.00000000  0.00000000  0.46945834  1
