# generated using pymatgen
data_SrBeTe2
_symmetry_space_group_name_H-M   'P 1'
_cell_length_a   4.31513795
_cell_length_b   4.31513795
_cell_length_c   6.85022065
_cell_angle_alpha   90.00000000
_cell_angle_beta   90.00000000
_cell_angle_gamma   90.00000000
_symmetry_Int_Tables_number   1
_chemical_formula_structural   SrBeTe2
_chemical_formula_sum   'Sr1 Be1 Te2'
_cell_volume   127.55395463
_cell_formula_units_Z   1
loop_
 _symmetry_equiv_pos_site_id
 _symmetry_equiv_pos_as_xyz
  1  'x, y, z'
loop_
 _atom_site_type_symbol
 _atom_site_label
 _atom_site_symmetry_multiplicity
 _atom_site_fract_x
 _atom_site_fract_y
 _atom_site_fract_z
 _atom_site_occupancy
  Be  Be0  1  0.50000000  0.50000000  0.30852848  1
  Sr  Sr1  1  0.00000000  0.00000000  0.84928479  1
  Te  Te2  1  0.50000000  0.50000000  0.96492288  1
  Te  Te3  1  0.00000000  0.00000000  0.37726477  1
