# generated using pymatgen
data_MoW3(Se3S)2
_symmetry_space_group_name_H-M   'P 1'
_cell_length_a   3.29167057
_cell_length_b   3.29167057
_cell_length_c   34.58412548
_cell_angle_alpha   90.00000000
_cell_angle_beta   90.00000000
_cell_angle_gamma   120.00000000
_symmetry_Int_Tables_number   1
_chemical_formula_structural   MoW3(Se3S)2
_chemical_formula_sum   'Mo1 W3 Se6 S2'
_cell_volume   324.51902242
_cell_formula_units_Z   1
loop_
 _symmetry_equiv_pos_site_id
 _symmetry_equiv_pos_as_xyz
  1  'x, y, z'
loop_
 _atom_site_type_symbol
 _atom_site_label
 _atom_site_symmetry_multiplicity
 _atom_site_fract_x
 _atom_site_fract_y
 _atom_site_fract_z
 _atom_site_occupancy
  Mo  Mo0  1  0.00000000  0.00000000  0.28476259  1
  S  S1  1  0.00000000  0.00000000  0.42530039  1
  S  S2  1  0.00000000  0.00000000  0.51450811  1
  Se  Se3  1  0.66666667  0.33333333  0.33349991  1
  Se  Se4  1  0.66666667  0.33333333  0.70428284  1
  Se  Se5  1  0.00000000  0.00000000  0.04396398  1
  Se  Se6  1  0.00000000  0.00000000  0.14198884  1
  Se  Se7  1  0.66666667  0.33333333  0.23601647  1
  Se  Se8  1  0.66666667  0.33333333  0.60627446  1
  W  W9  1  0.66666667  0.33333333  0.09294351  1
  W  W10  1  0.66666667  0.33333333  0.46990564  1
  W  W11  1  0.00000000  0.00000000  0.65530327  1
