# generated using pymatgen
data_SbIrS
_symmetry_space_group_name_H-M   'P 1'
_cell_length_a   6.12627058
_cell_length_b   6.10932166
_cell_length_c   6.12838979
_cell_angle_alpha   90.00000000
_cell_angle_beta   90.00000000
_cell_angle_gamma   90.00000000
_symmetry_Int_Tables_number   1
_chemical_formula_structural   SbIrS
_chemical_formula_sum   'Sb4 Ir4 S4'
_cell_volume   229.36943571
_cell_formula_units_Z   4
loop_
 _symmetry_equiv_pos_site_id
 _symmetry_equiv_pos_as_xyz
  1  'x, y, z'
loop_
 _atom_site_type_symbol
 _atom_site_label
 _atom_site_symmetry_multiplicity
 _atom_site_fract_x
 _atom_site_fract_y
 _atom_site_fract_z
 _atom_site_occupancy
  Ir  Ir0  1  0.51015111  0.76609529  0.99945552  1
  Ir  Ir1  1  0.48984889  0.23390471  0.49945552  1
  Ir  Ir2  1  0.98984889  0.76609529  0.49945552  1
  Ir  Ir3  1  0.01015111  0.23390471  0.99945552  1
  S  S4  1  0.11835117  0.12628306  0.62074154  1
  S  S5  1  0.88164883  0.87371694  0.12074154  1
  S  S6  1  0.38164883  0.12628306  0.12074154  1
  S  S7  1  0.61835117  0.87371694  0.62074154  1
  Sb  Sb8  1  0.37957244  0.63402754  0.38200294  1
  Sb  Sb9  1  0.62042756  0.36597246  0.88200294  1
  Sb  Sb10  1  0.12042756  0.63402754  0.88200294  1
  Sb  Sb11  1  0.87957244  0.36597246  0.38200294  1
