# generated using pymatgen
data_Dy2PbS4
_symmetry_space_group_name_H-M   'P 1'
_cell_length_a   7.35697557
_cell_length_b   7.35697557
_cell_length_c   7.35697557
_cell_angle_alpha   109.36112854
_cell_angle_beta   109.36112854
_cell_angle_gamma   109.69162991
_symmetry_Int_Tables_number   1
_chemical_formula_structural   Dy2PbS4
_chemical_formula_sum   'Dy4 Pb2 S8'
_cell_volume   306.52876014
_cell_formula_units_Z   2
loop_
 _symmetry_equiv_pos_site_id
 _symmetry_equiv_pos_as_xyz
  1  'x, y, z'
loop_
 _atom_site_type_symbol
 _atom_site_label
 _atom_site_symmetry_multiplicity
 _atom_site_fract_x
 _atom_site_fract_y
 _atom_site_fract_z
 _atom_site_occupancy
  Dy  Dy0  1  0.00512150  0.62500000  0.88012150  1
  Dy  Dy1  1  0.87500000  0.99487850  0.61987850  1
  Dy  Dy2  1  0.74487850  0.12500000  0.11987850  1
  Dy  Dy3  1  0.37500000  0.25512150  0.38012150  1
  Pb  Pb4  1  0.50000000  0.50000000  0.00000000  1
  Pb  Pb5  1  0.25000000  0.75000000  0.50000000  1
  S  S6  1  0.11111898  0.35693730  0.09857092  1
  S  S7  1  0.10693730  0.36111898  0.59857092  1
  S  S8  1  0.76254806  0.50836638  0.40142908  1
  S  S9  1  0.64306270  0.74163362  0.75418168  1
  S  S10  1  0.49163362  0.89306270  0.25418168  1
  S  S11  1  0.25836638  0.01254806  0.90142908  1
  S  S12  1  0.98745194  0.88888102  0.24581832  1
  S  S13  1  0.63888102  0.23745194  0.74581832  1
