# generated using pymatgen
data_AlS
_symmetry_space_group_name_H-M   'P 1'
_cell_length_a   5.92873244
_cell_length_b   3.77560651
_cell_length_c   5.82453390
_cell_angle_alpha   72.76643355
_cell_angle_beta   37.46245281
_cell_angle_gamma   69.77111363
_symmetry_Int_Tables_number   1
_chemical_formula_structural   AlS
_chemical_formula_sum   'Al2 S2'
_cell_volume   74.35647348
_cell_formula_units_Z   2
loop_
 _symmetry_equiv_pos_site_id
 _symmetry_equiv_pos_as_xyz
  1  'x, y, z'
loop_
 _atom_site_type_symbol
 _atom_site_label
 _atom_site_symmetry_multiplicity
 _atom_site_fract_x
 _atom_site_fract_y
 _atom_site_fract_z
 _atom_site_occupancy
  Al  Al0  1  0.03357177  0.78543361  0.21456639  1
  Al  Al1  1  0.78543361  0.03357177  0.96642823  1
  S  S2  1  0.18227688  0.49176966  0.50823034  1
  S  S3  1  0.49176966  0.18227688  0.81772312  1
