# generated using pymatgen
data_NaLiS
_symmetry_space_group_name_H-M   'P 1'
_cell_length_a   4.66601069
_cell_length_b   4.88800135
_cell_length_c   4.88800135
_cell_angle_alpha   51.55004195
_cell_angle_beta   90.00000000
_cell_angle_gamma   90.00000000
_symmetry_Int_Tables_number   1
_chemical_formula_structural   NaLiS
_chemical_formula_sum   'Na1 Li1 S1'
_cell_volume   87.30802849
_cell_formula_units_Z   1
loop_
 _symmetry_equiv_pos_site_id
 _symmetry_equiv_pos_as_xyz
  1  'x, y, z'
loop_
 _atom_site_type_symbol
 _atom_site_label
 _atom_site_symmetry_multiplicity
 _atom_site_fract_x
 _atom_site_fract_y
 _atom_site_fract_z
 _atom_site_occupancy
  Li  Li0  1  0.00000000  0.48551138  0.48551138  1
  Na  Na1  1  0.00000000  0.77873364  0.77873364  1
  S  S2  1  0.00000000  0.08681741  0.08681741  1
