# generated using pymatgen
data_Cu2HgGeS4
_symmetry_space_group_name_H-M   'P 1'
_cell_length_a   6.59650516
_cell_length_b   6.59650516
_cell_length_c   6.59650516
_cell_angle_alpha   130.13502119
_cell_angle_beta   130.13502119
_cell_angle_gamma   73.19100337
_symmetry_Int_Tables_number   1
_chemical_formula_structural   Cu2HgGeS4
_chemical_formula_sum   'Cu2 Hg1 Ge1 S4'
_cell_volume   163.81067737
_cell_formula_units_Z   1
loop_
 _symmetry_equiv_pos_site_id
 _symmetry_equiv_pos_as_xyz
  1  'x, y, z'
loop_
 _atom_site_type_symbol
 _atom_site_label
 _atom_site_symmetry_multiplicity
 _atom_site_fract_x
 _atom_site_fract_y
 _atom_site_fract_z
 _atom_site_occupancy
  Cu  Cu0  1  0.75000000  0.25000000  0.50000000  1
  Cu  Cu1  1  0.25000000  0.75000000  0.50000000  1
  Ge  Ge2  1  0.50000000  0.50000000  0.00000000  1
  Hg  Hg3  1  0.00000000  0.00000000  0.00000000  1
  S  S4  1  0.86165593  0.40999870  -0.00000000  1
  S  S5  1  0.59000130  0.59000130  0.45165723  1
  S  S6  1  0.40999870  0.86165593  -0.00000000  1
  S  S7  1  0.13834407  0.13834407  0.54834277  1
