# generated using pymatgen
data_SrCu2GeS4
_symmetry_space_group_name_H-M   'P 1'
_cell_length_a   6.05925436
_cell_length_b   6.05925436
_cell_length_c   6.05925436
_cell_angle_alpha   116.82591291
_cell_angle_beta   116.82591291
_cell_angle_gamma   95.59163733
_symmetry_Int_Tables_number   1
_chemical_formula_structural   SrCu2GeS4
_chemical_formula_sum   'Sr1 Cu2 Ge1 S4'
_cell_volume   164.00648252
_cell_formula_units_Z   1
loop_
 _symmetry_equiv_pos_site_id
 _symmetry_equiv_pos_as_xyz
  1  'x, y, z'
loop_
 _atom_site_type_symbol
 _atom_site_label
 _atom_site_symmetry_multiplicity
 _atom_site_fract_x
 _atom_site_fract_y
 _atom_site_fract_z
 _atom_site_occupancy
  Cu  Cu0  1  0.25000000  0.75000000  0.50000000  1
  Cu  Cu1  1  0.75000000  0.25000000  0.50000000  1
  Ge  Ge2  1  0.50000000  0.50000000  0.00000000  1
  S  S3  1  0.46054252  0.86408963  0.00000000  1
  S  S4  1  0.86408963  0.46054252  -0.00000000  1
  S  S5  1  0.53945748  0.53945748  0.40354710  1
  S  S6  1  0.13591037  0.13591037  0.59645290  1
  Sr  Sr7  1  0.00000000  0.00000000  0.00000000  1
