# generated using pymatgen
data_SF4
_symmetry_space_group_name_H-M   'P 1'
_cell_length_a   4.59024945
_cell_length_b   4.59024945
_cell_length_c   4.59024945
_cell_angle_alpha   116.12917908
_cell_angle_beta   116.12917908
_cell_angle_gamma   96.84634404
_symmetry_Int_Tables_number   1
_chemical_formula_structural   SF4
_chemical_formula_sum   'S1 F4'
_cell_volume   71.83584811
_cell_formula_units_Z   1
loop_
 _symmetry_equiv_pos_site_id
 _symmetry_equiv_pos_as_xyz
  1  'x, y, z'
loop_
 _atom_site_type_symbol
 _atom_site_label
 _atom_site_symmetry_multiplicity
 _atom_site_fract_x
 _atom_site_fract_y
 _atom_site_fract_z
 _atom_site_occupancy
  F  F0  1  0.12241132  0.12241132  0.46763415  1
  F  F1  1  0.34522283  0.87758868  -0.00000000  1
  F  F2  1  0.87758868  0.34522283  -0.00000000  1
  F  F3  1  0.65477717  0.65477717  0.53236585  1
  S  S4  1  0.00000000  0.00000000  0.00000000  1
