# generated using pymatgen
data_Mg(ScSe2)2
_symmetry_space_group_name_H-M   'P 1'
_cell_length_a   7.59381659
_cell_length_b   7.59381659
_cell_length_c   7.59381659
_cell_angle_alpha   105.53975947
_cell_angle_beta   105.53975947
_cell_angle_gamma   117.65755313
_symmetry_Int_Tables_number   1
_chemical_formula_structural   Mg(ScSe2)2
_chemical_formula_sum   'Mg2 Sc4 Se8'
_cell_volume   331.87045724
_cell_formula_units_Z   2
loop_
 _symmetry_equiv_pos_site_id
 _symmetry_equiv_pos_as_xyz
  1  'x, y, z'
loop_
 _atom_site_type_symbol
 _atom_site_label
 _atom_site_symmetry_multiplicity
 _atom_site_fract_x
 _atom_site_fract_y
 _atom_site_fract_z
 _atom_site_occupancy
  Mg  Mg0  1  0.00000000  0.00000000  0.00000000  1
  Mg  Mg1  1  0.75000000  0.25000000  0.50000000  1
  Sc  Sc2  1  0.61017057  0.62500000  0.48517057  1
  Sc  Sc3  1  0.37500000  0.86017057  0.98517057  1
  Sc  Sc4  1  0.13982943  0.12500000  0.51482943  1
  Sc  Sc5  1  0.87500000  0.38982943  0.01482943  1
  Se  Se6  1  0.68555883  0.87324413  0.28443577  1
  Se  Se7  1  0.12675587  0.41119164  0.81231470  1
  Se  Se8  1  0.58880836  0.40112306  0.71556423  1
  Se  Se9  1  0.59887694  0.31444117  0.18768530  1
  Se  Se10  1  0.16119164  0.37675587  0.31231470  1
  Se  Se11  1  0.15112306  0.83880836  0.21556423  1
  Se  Se12  1  0.06444117  0.84887694  0.68768530  1
  Se  Se13  1  0.62324413  0.93555883  0.78443577  1
