# generated using pymatgen
data_GaCuSe2
_symmetry_space_group_name_H-M   'P 1'
_cell_length_a   6.89014729
_cell_length_b   6.89014729
_cell_length_c   6.89014729
_cell_angle_alpha   131.49791551
_cell_angle_beta   131.49791551
_cell_angle_gamma   71.02318014
_symmetry_Int_Tables_number   1
_chemical_formula_structural   GaCuSe2
_chemical_formula_sum   'Ga2 Cu2 Se4'
_cell_volume   179.67730097
_cell_formula_units_Z   2
loop_
 _symmetry_equiv_pos_site_id
 _symmetry_equiv_pos_as_xyz
  1  'x, y, z'
loop_
 _atom_site_type_symbol
 _atom_site_label
 _atom_site_symmetry_multiplicity
 _atom_site_fract_x
 _atom_site_fract_y
 _atom_site_fract_z
 _atom_site_occupancy
  Cu  Cu0  1  0.00000000  0.00000000  0.00000000  1
  Cu  Cu1  1  0.75000000  0.25000000  0.50000000  1
  Ga  Ga2  1  0.50000000  0.50000000  0.00000000  1
  Ga  Ga3  1  0.25000000  0.75000000  0.50000000  1
  Se  Se4  1  0.37500000  0.37043867  0.49543867  1
  Se  Se5  1  0.62956133  0.12500000  0.00456133  1
  Se  Se6  1  0.12043867  0.62500000  0.99543867  1
  Se  Se7  1  0.87500000  0.87956133  0.50456133  1
