# generated using pymatgen
data_In4SnS8
_symmetry_space_group_name_H-M   'P 1'
_cell_length_a   7.63237777
_cell_length_b   7.63237777
_cell_length_c   7.63237777
_cell_angle_alpha   60.02529505
_cell_angle_beta   60.02529505
_cell_angle_gamma   60.02529505
_symmetry_Int_Tables_number   1
_chemical_formula_structural   In4SnS8
_chemical_formula_sum   'In4 Sn1 S8'
_cell_volume   314.56726973
_cell_formula_units_Z   1
loop_
 _symmetry_equiv_pos_site_id
 _symmetry_equiv_pos_as_xyz
  1  'x, y, z'
loop_
 _atom_site_type_symbol
 _atom_site_label
 _atom_site_symmetry_multiplicity
 _atom_site_fract_x
 _atom_site_fract_y
 _atom_site_fract_z
 _atom_site_occupancy
  In  In0  1  0.48988554  0.02864963  0.48988554  1
  In  In1  1  0.02864963  0.48988554  0.48988554  1
  In  In2  1  0.48988554  0.48988554  0.02864963  1
  In  In3  1  0.87037718  0.87037718  0.87037718  1
  S  S4  1  0.74642246  0.25650241  0.25650241  1
  S  S5  1  0.25650241  0.74642246  0.25650241  1
  S  S6  1  0.25650241  0.25650241  0.74642246  1
  S  S7  1  0.25244254  0.25244254  0.25244254  1
  S  S8  1  0.73705590  0.73705590  0.73705590  1
  S  S9  1  0.73994366  0.73994366  0.27664315  1
  S  S10  1  0.73994366  0.27664315  0.73994366  1
  S  S11  1  0.27664315  0.73994366  0.73994366  1
  Sn  Sn12  1  0.49074157  0.49074157  0.49074157  1
