# generated using pymatgen
data_KAg2AsS4
_symmetry_space_group_name_H-M   'P 1'
_cell_length_a   6.33015614
_cell_length_b   6.33015614
_cell_length_c   6.33015614
_cell_angle_alpha   115.38000709
_cell_angle_beta   115.38000709
_cell_angle_gamma   98.20759928
_symmetry_Int_Tables_number   1
_chemical_formula_structural   KAg2AsS4
_chemical_formula_sum   'K1 Ag2 As1 S4'
_cell_volume   189.77305108
_cell_formula_units_Z   1
loop_
 _symmetry_equiv_pos_site_id
 _symmetry_equiv_pos_as_xyz
  1  'x, y, z'
loop_
 _atom_site_type_symbol
 _atom_site_label
 _atom_site_symmetry_multiplicity
 _atom_site_fract_x
 _atom_site_fract_y
 _atom_site_fract_z
 _atom_site_occupancy
  Ag  Ag0  1  0.75000000  0.25000000  0.50000000  1
  Ag  Ag1  1  0.25000000  0.75000000  0.50000000  1
  As  As2  1  0.50000000  0.50000000  0.00000000  1
  K  K3  1  0.00000000  0.00000000  0.00000000  1
  S  S4  1  0.45956388  0.45956388  0.61796184  1
  S  S5  1  0.84160204  0.84160204  0.38203816  1
  S  S6  1  0.54043612  0.15839796  0.00000000  1
  S  S7  1  0.15839796  0.54043612  0.00000000  1
