# generated using pymatgen
data_Zn2TeSe
_symmetry_space_group_name_H-M   'P 1'
_cell_length_a   7.28727225
_cell_length_b   7.28727225
_cell_length_c   7.28727225
_cell_angle_alpha   33.59211952
_cell_angle_beta   33.59211952
_cell_angle_gamma   33.59211952
_symmetry_Int_Tables_number   1
_chemical_formula_structural   Zn2TeSe
_chemical_formula_sum   'Zn2 Te1 Se1'
_cell_volume   105.52321068
_cell_formula_units_Z   1
loop_
 _symmetry_equiv_pos_site_id
 _symmetry_equiv_pos_as_xyz
  1  'x, y, z'
loop_
 _atom_site_type_symbol
 _atom_site_label
 _atom_site_symmetry_multiplicity
 _atom_site_fract_x
 _atom_site_fract_y
 _atom_site_fract_z
 _atom_site_occupancy
  Se  Se0  1  0.12534423  0.12534423  0.12534423  1
  Te  Te1  1  0.62442425  0.62442425  0.62442425  1
  Zn  Zn2  1  0.00516567  0.00516567  0.00516567  1
  Zn  Zn3  1  0.49506585  0.49506585  0.49506585  1
