# generated using pymatgen
data_MoWSe3S
_symmetry_space_group_name_H-M   'P 1'
_cell_length_a   3.29100250
_cell_length_b   3.29100250
_cell_length_c   34.44593813
_cell_angle_alpha   90.00000000
_cell_angle_beta   90.00000000
_cell_angle_gamma   120.00000000
_symmetry_Int_Tables_number   1
_chemical_formula_structural   MoWSe3S
_chemical_formula_sum   'Mo2 W2 Se6 S2'
_cell_volume   323.09115782
_cell_formula_units_Z   2
loop_
 _symmetry_equiv_pos_site_id
 _symmetry_equiv_pos_as_xyz
  1  'x, y, z'
loop_
 _atom_site_type_symbol
 _atom_site_label
 _atom_site_symmetry_multiplicity
 _atom_site_fract_x
 _atom_site_fract_y
 _atom_site_fract_z
 _atom_site_occupancy
  Mo  Mo0  1  0.33333333  0.66666667  0.09511986  1
  Mo  Mo1  1  0.66666667  0.33333333  0.65966989  1
  S  S2  1  0.33333333  0.66666667  0.32578763  1
  S  S3  1  0.33333333  0.66666667  0.23620942  1
  Se  Se4  1  0.33333333  0.66666667  0.70856902  1
  Se  Se5  1  0.66666667  0.33333333  0.04622090  1
  Se  Se6  1  0.66666667  0.33333333  0.41790159  1
  Se  Se7  1  0.66666667  0.33333333  0.14406641  1
  Se  Se8  1  0.66666667  0.33333333  0.51636591  1
  Se  Se9  1  0.33333333  0.66666667  0.61071051  1
  W  W10  1  0.33333333  0.66666667  0.46712664  1
  W  W11  1  0.66666667  0.33333333  0.28100123  1
