# generated using pymatgen
data_SeBr
_symmetry_space_group_name_H-M   'P 1'
_cell_length_a   14.93805902
_cell_length_b   4.07605547
_cell_length_c   4.07605547
_cell_angle_alpha   105.75253728
_cell_angle_beta   90.00000000
_cell_angle_gamma   90.00000000
_symmetry_Int_Tables_number   1
_chemical_formula_structural   SeBr
_chemical_formula_sum   'Se4 Br4'
_cell_volume   238.86331602
_cell_formula_units_Z   4
loop_
 _symmetry_equiv_pos_site_id
 _symmetry_equiv_pos_as_xyz
  1  'x, y, z'
loop_
 _atom_site_type_symbol
 _atom_site_label
 _atom_site_symmetry_multiplicity
 _atom_site_fract_x
 _atom_site_fract_y
 _atom_site_fract_z
 _atom_site_occupancy
  Br  Br0  1  0.16896528  0.95048855  0.06715751  1
  Br  Br1  1  0.33103472  0.45048855  0.56715751  1
  Br  Br2  1  0.83103472  0.06715751  0.95048855  1
  Br  Br3  1  0.66896528  0.56715751  0.45048855  1
  Se  Se4  1  0.44959661  0.04400350  0.31315144  1
  Se  Se5  1  0.94959661  0.81315144  0.54400350  1
  Se  Se6  1  0.05040339  0.54400350  0.81315144  1
  Se  Se7  1  0.55040339  0.31315144  0.04400350  1
