# generated using pymatgen
data_Te2MoWSe2
_symmetry_space_group_name_H-M   'P 1'
_cell_length_a   3.44078189
_cell_length_b   3.44078189
_cell_length_c   35.75120710
_cell_angle_alpha   90.00000000
_cell_angle_beta   90.00000000
_cell_angle_gamma   120.00000000
_symmetry_Int_Tables_number   1
_chemical_formula_structural   Te2MoWSe2
_chemical_formula_sum   'Te4 Mo2 W2 Se4'
_cell_volume   366.55202948
_cell_formula_units_Z   2
loop_
 _symmetry_equiv_pos_site_id
 _symmetry_equiv_pos_as_xyz
  1  'x, y, z'
loop_
 _atom_site_type_symbol
 _atom_site_label
 _atom_site_symmetry_multiplicity
 _atom_site_fract_x
 _atom_site_fract_y
 _atom_site_fract_z
 _atom_site_occupancy
  Mo  Mo0  1  0.33333333  0.66666667  0.08161602  1
  Mo  Mo1  1  0.66666667  0.33333333  0.28478562  1
  Se  Se2  1  0.33333333  0.66666667  0.70519198  1
  Se  Se3  1  0.66666667  0.33333333  0.43126833  1
  Se  Se4  1  0.66666667  0.33333333  0.52315872  1
  Se  Se5  1  0.33333333  0.66666667  0.61332648  1
  Te  Te6  1  0.33333333  0.66666667  0.33679986  1
  Te  Te7  1  0.66666667  0.33333333  0.02965848  1
  Te  Te8  1  0.66666667  0.33333333  0.13367951  1
  Te  Te9  1  0.33333333  0.66666667  0.23274512  1
  W  W10  1  0.33333333  0.66666667  0.47723040  1
  W  W11  1  0.66666667  0.33333333  0.65928548  1
