# generated using pymatgen
data_Ho2MgSe4
_symmetry_space_group_name_H-M   'P 1'
_cell_length_a   7.49408464
_cell_length_b   7.49408464
_cell_length_c   7.49408464
_cell_angle_alpha   110.76006877
_cell_angle_beta   110.76006877
_cell_angle_gamma   106.92318006
_symmetry_Int_Tables_number   1
_chemical_formula_structural   Ho2MgSe4
_chemical_formula_sum   'Ho4 Mg2 Se8'
_cell_volume   323.51381377
_cell_formula_units_Z   2
loop_
 _symmetry_equiv_pos_site_id
 _symmetry_equiv_pos_as_xyz
  1  'x, y, z'
loop_
 _atom_site_type_symbol
 _atom_site_label
 _atom_site_symmetry_multiplicity
 _atom_site_fract_x
 _atom_site_fract_y
 _atom_site_fract_z
 _atom_site_occupancy
  Ho  Ho0  1  0.37500000  0.50121068  0.62621068  1
  Ho  Ho1  1  0.49878932  0.12500000  0.87378932  1
  Ho  Ho2  1  0.87500000  0.74878932  0.37378932  1
  Ho  Ho3  1  0.25121068  0.62500000  0.12621068  1
  Mg  Mg4  1  0.75000000  0.25000000  0.50000000  1
  Mg  Mg5  1  0.00000000  0.00000000  0.00000000  1
  Se  Se6  1  0.63290842  0.87157142  0.63079725  1
  Se  Se7  1  0.12842858  0.75922584  0.76133700  1
  Se  Se8  1  0.24077416  0.00211117  0.36920275  1
  Se  Se9  1  0.99788883  0.36709158  0.23866300  1
  Se  Se10  1  0.11709158  0.24788883  0.73866300  1
  Se  Se11  1  0.62157142  0.88290842  0.13079725  1
  Se  Se12  1  0.50922584  0.37842858  0.26133700  1
  Se  Se13  1  0.75211117  0.49077416  0.86920275  1
