# generated using pymatgen
data_NaAlSe2
_symmetry_space_group_name_H-M   'P 1'
_cell_length_a   4.04692126
_cell_length_b   4.04692126
_cell_length_c   7.12491590
_cell_angle_alpha   90.00000000
_cell_angle_beta   90.00000000
_cell_angle_gamma   120.00000000
_symmetry_Int_Tables_number   1
_chemical_formula_structural   NaAlSe2
_chemical_formula_sum   'Na1 Al1 Se2'
_cell_volume   101.05548309
_cell_formula_units_Z   1
loop_
 _symmetry_equiv_pos_site_id
 _symmetry_equiv_pos_as_xyz
  1  'x, y, z'
loop_
 _atom_site_type_symbol
 _atom_site_label
 _atom_site_symmetry_multiplicity
 _atom_site_fract_x
 _atom_site_fract_y
 _atom_site_fract_z
 _atom_site_occupancy
  Al  Al0  1  0.33333333  0.66666667  0.68349273  1
  Na  Na1  1  0.00000000  0.00000000  0.19364033  1
  Se  Se2  1  0.33333333  0.66666667  0.99618875  1
  Se  Se3  1  0.66666667  0.33333333  0.52577898  1
