# generated using pymatgen
data_Mo3WS8
_symmetry_space_group_name_H-M   'P 1'
_cell_length_a   3.19140909
_cell_length_b   3.19140909
_cell_length_c   32.71915381
_cell_angle_alpha   90.00000000
_cell_angle_beta   90.00000000
_cell_angle_gamma   120.00000000
_symmetry_Int_Tables_number   1
_chemical_formula_structural   Mo3WS8
_chemical_formula_sum   'Mo3 W1 S8'
_cell_volume   288.60087951
_cell_formula_units_Z   1
loop_
 _symmetry_equiv_pos_site_id
 _symmetry_equiv_pos_as_xyz
  1  'x, y, z'
loop_
 _atom_site_type_symbol
 _atom_site_label
 _atom_site_symmetry_multiplicity
 _atom_site_fract_x
 _atom_site_fract_y
 _atom_site_fract_z
 _atom_site_occupancy
  Mo  Mo0  1  0.00000000  0.00000000  0.08945734  1
  Mo  Mo1  1  0.33333333  0.66666667  0.28006264  1
  Mo  Mo2  1  0.33333333  0.66666667  0.66226933  1
  S  S3  1  0.00000000  0.00000000  0.32794496  1
  S  S4  1  0.00000000  0.00000000  0.71011647  1
  S  S5  1  0.33333333  0.66666667  0.04161004  1
  S  S6  1  0.33333333  0.66666667  0.42296279  1
  S  S7  1  0.33333333  0.66666667  0.13734624  1
  S  S8  1  0.33333333  0.66666667  0.51929145  1
  S  S9  1  0.00000000  0.00000000  0.23218035  1
  S  S10  1  0.00000000  0.00000000  0.61438104  1
  W  W11  1  0.00000000  0.00000000  0.47112737  1
