# generated using pymatgen
data_RbHS
_symmetry_space_group_name_H-M   'P 1'
_cell_length_a   4.30834330
_cell_length_b   4.30834330
_cell_length_c   3.31710109
_cell_angle_alpha   90.11617677
_cell_angle_beta   90.11617677
_cell_angle_gamma   90.72125683
_symmetry_Int_Tables_number   1
_chemical_formula_structural   RbHS
_chemical_formula_sum   'Rb1 H1 S1'
_cell_volume   61.56630521
_cell_formula_units_Z   1
loop_
 _symmetry_equiv_pos_site_id
 _symmetry_equiv_pos_as_xyz
  1  'x, y, z'
loop_
 _atom_site_type_symbol
 _atom_site_label
 _atom_site_symmetry_multiplicity
 _atom_site_fract_x
 _atom_site_fract_y
 _atom_site_fract_z
 _atom_site_occupancy
  H  H0  1  0.09618553  0.90381447  0.00000000  1
  Rb  Rb1  1  0.62982120  0.37017880  0.00000000  1
  S  S2  1  0.14199327  0.85800673  0.50000000  1
