# generated using pymatgen
data_Te6MoW3Se2
_symmetry_space_group_name_H-M   'P 1'
_cell_length_a   3.50460856
_cell_length_b   3.50460856
_cell_length_c   37.77512119
_cell_angle_alpha   90.00000000
_cell_angle_beta   90.00000000
_cell_angle_gamma   120.00000000
_symmetry_Int_Tables_number   1
_chemical_formula_structural   Te6MoW3Se2
_chemical_formula_sum   'Te6 Mo1 W3 Se2'
_cell_volume   401.80518250
_cell_formula_units_Z   1
loop_
 _symmetry_equiv_pos_site_id
 _symmetry_equiv_pos_as_xyz
  1  'x, y, z'
loop_
 _atom_site_type_symbol
 _atom_site_label
 _atom_site_symmetry_multiplicity
 _atom_site_fract_x
 _atom_site_fract_y
 _atom_site_fract_z
 _atom_site_occupancy
  Mo  Mo0  1  0.33333333  0.66666667  0.09211415  1
  Se  Se1  1  0.33333333  0.66666667  0.69721150  1
  Se  Se2  1  0.33333333  0.66666667  0.61134158  1
  Te  Te3  1  0.33333333  0.66666667  0.33162140  1
  Te  Te4  1  0.66666667  0.33333333  0.04358777  1
  Te  Te5  1  0.66666667  0.33333333  0.42487050  1
  Te  Te6  1  0.66666667  0.33333333  0.14072772  1
  Te  Te7  1  0.66666667  0.33333333  0.52247059  1
  Te  Te8  1  0.33333333  0.66666667  0.23400463  1
  W  W9  1  0.33333333  0.66666667  0.47367391  1
  W  W10  1  0.66666667  0.33333333  0.28281409  1
  W  W11  1  0.66666667  0.33333333  0.65430917  1
