# generated using pymatgen
data_Yb(PrS2)2
_symmetry_space_group_name_H-M   'P 1'
_cell_length_a   7.42354629
_cell_length_b   7.42354629
_cell_length_c   7.42354629
_cell_angle_alpha   109.63334454
_cell_angle_beta   109.63334454
_cell_angle_gamma   109.14745714
_symmetry_Int_Tables_number   1
_chemical_formula_structural   Yb(PrS2)2
_chemical_formula_sum   'Yb2 Pr4 S8'
_cell_volume   314.92125907
_cell_formula_units_Z   2
loop_
 _symmetry_equiv_pos_site_id
 _symmetry_equiv_pos_as_xyz
  1  'x, y, z'
loop_
 _atom_site_type_symbol
 _atom_site_label
 _atom_site_symmetry_multiplicity
 _atom_site_fract_x
 _atom_site_fract_y
 _atom_site_fract_z
 _atom_site_occupancy
  Pr  Pr0  1  0.00301694  0.62500000  0.87801694  1
  Pr  Pr1  1  0.87500000  0.99698306  0.62198306  1
  Pr  Pr2  1  0.74698306  0.12500000  0.12198306  1
  Pr  Pr3  1  0.37500000  0.25301694  0.37801694  1
  S  S4  1  0.12556443  0.37846864  0.10565240  1
  S  S5  1  0.76991203  0.52281623  0.39434760  1
  S  S6  1  0.62153136  0.72718377  0.74709579  1
  S  S7  1  0.27281623  0.01991203  0.89434760  1
  S  S8  1  0.47718377  0.87153136  0.24709579  1
  S  S9  1  0.98008797  0.87443557  0.25290421  1
  S  S10  1  0.62443557  0.23008797  0.75290421  1
  S  S11  1  0.12846864  0.37556443  0.60565240  1
  Yb  Yb12  1  0.50000000  0.50000000  0.00000000  1
  Yb  Yb13  1  0.25000000  0.75000000  0.50000000  1
