# generated using pymatgen
data_Sm2CdS4
_symmetry_space_group_name_H-M   'P 1'
_cell_length_a   7.36167252
_cell_length_b   7.36167252
_cell_length_c   7.36167252
_cell_angle_alpha   110.59537192
_cell_angle_beta   110.59537192
_cell_angle_gamma   107.24558156
_symmetry_Int_Tables_number   1
_chemical_formula_structural   Sm2CdS4
_chemical_formula_sum   'Sm4 Cd2 S8'
_cell_volume   306.77376180
_cell_formula_units_Z   2
loop_
 _symmetry_equiv_pos_site_id
 _symmetry_equiv_pos_as_xyz
  1  'x, y, z'
loop_
 _atom_site_type_symbol
 _atom_site_label
 _atom_site_symmetry_multiplicity
 _atom_site_fract_x
 _atom_site_fract_y
 _atom_site_fract_z
 _atom_site_occupancy
  Cd  Cd0  1  0.50000000  0.50000000  0.00000000  1
  Cd  Cd1  1  0.25000000  0.75000000  0.50000000  1
  S  S2  1  0.25562804  0.99371973  0.87666699  1
  S  S3  1  0.49437196  0.87103895  0.23809169  1
  S  S4  1  0.62103895  0.74437196  0.73809169  1
  S  S5  1  0.12896105  0.36705274  0.62333301  1
  S  S6  1  0.63294726  0.25628027  0.76190831  1
  S  S7  1  0.00628027  0.88294726  0.26190831  1
  S  S8  1  0.11705274  0.37896105  0.12333301  1
  S  S9  1  0.74371973  0.50562804  0.37666699  1
  Sm  Sm10  1  0.73676640  0.12500000  0.11176640  1
  Sm  Sm11  1  0.37500000  0.26323360  0.38823360  1
  Sm  Sm12  1  0.01323360  0.62500000  0.88823360  1
  Sm  Sm13  1  0.87500000  0.98676640  0.61176640  1
