# generated using pymatgen
data_Te4MoW
_symmetry_space_group_name_H-M   'P 1'
_cell_length_a   3.56896203
_cell_length_b   3.56896203
_cell_length_c   38.03722338
_cell_angle_alpha   90.00000000
_cell_angle_beta   90.00000000
_cell_angle_gamma   120.00000000
_symmetry_Int_Tables_number   1
_chemical_formula_structural   Te4MoW
_chemical_formula_sum   'Te8 Mo2 W2'
_cell_volume   419.58822597
_cell_formula_units_Z   2
loop_
 _symmetry_equiv_pos_site_id
 _symmetry_equiv_pos_as_xyz
  1  'x, y, z'
loop_
 _atom_site_type_symbol
 _atom_site_label
 _atom_site_symmetry_multiplicity
 _atom_site_fract_x
 _atom_site_fract_y
 _atom_site_fract_z
 _atom_site_occupancy
  Mo  Mo0  1  0.00000000  0.00000000  0.09452461  1
  Mo  Mo1  1  0.00000000  0.00000000  0.46945826  1
  Te  Te2  1  0.00000000  0.00000000  0.32983070  1
  Te  Te3  1  0.00000000  0.00000000  0.70463086  1
  Te  Te4  1  0.33333333  0.66666667  0.04696140  1
  Te  Te5  1  0.33333333  0.66666667  0.42182949  1
  Te  Te6  1  0.33333333  0.66666667  0.14217335  1
  Te  Te7  1  0.33333333  0.66666667  0.51708741  1
  Te  Te8  1  0.00000000  0.00000000  0.23422753  1
  Te  Te9  1  0.00000000  0.00000000  0.60909124  1
  W  W10  1  0.33333333  0.66666667  0.28202765  1
  W  W11  1  0.33333333  0.66666667  0.65690548  1
