# generated using pymatgen
data_Te2Mo2WSe4
_symmetry_space_group_name_H-M   'P 1'
_cell_length_a   3.40666143
_cell_length_b   3.40666143
_cell_length_c   29.91869153
_cell_angle_alpha   90.00000000
_cell_angle_beta   90.00000000
_cell_angle_gamma   120.00000000
_symmetry_Int_Tables_number   1
_chemical_formula_structural   Te2Mo2WSe4
_chemical_formula_sum   'Te2 Mo2 W1 Se4'
_cell_volume   300.69844049
_cell_formula_units_Z   1
loop_
 _symmetry_equiv_pos_site_id
 _symmetry_equiv_pos_as_xyz
  1  'x, y, z'
loop_
 _atom_site_type_symbol
 _atom_site_label
 _atom_site_symmetry_multiplicity
 _atom_site_fract_x
 _atom_site_fract_y
 _atom_site_fract_z
 _atom_site_occupancy
  Mo  Mo0  1  0.33333333  0.66666667  0.76953205  1
  Mo  Mo1  1  0.33333333  0.66666667  0.23046795  1
  Se  Se2  1  0.66666667  0.33333333  0.71454445  1
  Se  Se3  1  0.66666667  0.33333333  0.17537774  1
  Se  Se4  1  0.66666667  0.33333333  0.82462226  1
  Se  Se5  1  0.66666667  0.33333333  0.28545555  1
  Te  Te6  1  0.33333333  0.66666667  0.06298768  1
  Te  Te7  1  0.33333333  0.66666667  0.93701232  1
  W  W8  1  0.66666667  0.33333333  0.00000000  1
