# generated using pymatgen
data_ErCuSe2
_symmetry_space_group_name_H-M   'P 1'
_cell_length_a   4.06432362
_cell_length_b   4.06432362
_cell_length_c   6.40279503
_cell_angle_alpha   90.00000000
_cell_angle_beta   90.00000000
_cell_angle_gamma   120.00000000
_symmetry_Int_Tables_number   1
_chemical_formula_structural   ErCuSe2
_chemical_formula_sum   'Er1 Cu1 Se2'
_cell_volume   91.59606004
_cell_formula_units_Z   1
loop_
 _symmetry_equiv_pos_site_id
 _symmetry_equiv_pos_as_xyz
  1  'x, y, z'
loop_
 _atom_site_type_symbol
 _atom_site_label
 _atom_site_symmetry_multiplicity
 _atom_site_fract_x
 _atom_site_fract_y
 _atom_site_fract_z
 _atom_site_occupancy
  Cu  Cu0  1  0.66666667  0.33333333  0.87405166  1
  Er  Er1  1  0.00000000  0.00000000  0.48788108  1
  Se  Se2  1  0.33333333  0.66666667  0.75580497  1
  Se  Se3  1  0.66666667  0.33333333  0.25426229  1
