# generated using pymatgen
data_CoAsS
_symmetry_space_group_name_H-M   'P 1'
_cell_length_a   5.60434357
_cell_length_b   5.60792732
_cell_length_c   5.59887338
_cell_angle_alpha   90.00000000
_cell_angle_beta   90.00000000
_cell_angle_gamma   90.00000000
_symmetry_Int_Tables_number   1
_chemical_formula_structural   CoAsS
_chemical_formula_sum   'Co4 As4 S4'
_cell_volume   175.96559968
_cell_formula_units_Z   4
loop_
 _symmetry_equiv_pos_site_id
 _symmetry_equiv_pos_as_xyz
  1  'x, y, z'
loop_
 _atom_site_type_symbol
 _atom_site_label
 _atom_site_symmetry_multiplicity
 _atom_site_fract_x
 _atom_site_fract_y
 _atom_site_fract_z
 _atom_site_occupancy
  As  As0  1  0.87912889  0.37044737  0.38296279  1
  As  As1  1  0.62087111  0.37044737  0.88296279  1
  As  As2  1  0.37912889  0.62955263  0.38296279  1
  As  As3  1  0.12087111  0.62955263  0.88296279  1
  Co  Co4  1  0.49420206  0.23994056  0.50165671  1
  Co  Co5  1  0.99420206  0.76005944  0.50165671  1
  Co  Co6  1  0.00579794  0.23994056  0.00165671  1
  Co  Co7  1  0.50579794  0.76005944  0.00165671  1
  S  S8  1  0.11877310  0.12946023  0.62238049  1
  S  S9  1  0.38122690  0.12946023  0.12238049  1
  S  S10  1  0.88122690  0.87053977  0.12238049  1
  S  S11  1  0.61877310  0.87053977  0.62238049  1
