# generated using pymatgen
data_ZnS
_symmetry_space_group_name_H-M   'P 1'
_cell_length_a   3.83497826
_cell_length_b   3.83497826
_cell_length_c   6.30383075
_cell_angle_alpha   90.00000000
_cell_angle_beta   90.00000000
_cell_angle_gamma   120.00000000
_symmetry_Int_Tables_number   1
_chemical_formula_structural   ZnS
_chemical_formula_sum   'Zn2 S2'
_cell_volume   80.28991324
_cell_formula_units_Z   2
loop_
 _symmetry_equiv_pos_site_id
 _symmetry_equiv_pos_as_xyz
  1  'x, y, z'
loop_
 _atom_site_type_symbol
 _atom_site_label
 _atom_site_symmetry_multiplicity
 _atom_site_fract_x
 _atom_site_fract_y
 _atom_site_fract_z
 _atom_site_occupancy
  S  S0  1  0.33333333  0.66666667  0.37438950  1
  S  S1  1  0.66666667  0.33333333  0.87438950  1
  Zn  Zn2  1  0.33333333  0.66666667  0.00061050  1
  Zn  Zn3  1  0.66666667  0.33333333  0.50061050  1
