# generated using pymatgen
data_Te2Mo(WSe2)3
_symmetry_space_group_name_H-M   'P 1'
_cell_length_a   3.38585508
_cell_length_b   3.38585508
_cell_length_c   35.55560843
_cell_angle_alpha   90.00000000
_cell_angle_beta   90.00000000
_cell_angle_gamma   120.00000000
_symmetry_Int_Tables_number   1
_chemical_formula_structural   Te2Mo(WSe2)3
_chemical_formula_sum   'Te2 Mo1 W3 Se6'
_cell_volume   353.00062788
_cell_formula_units_Z   1
loop_
 _symmetry_equiv_pos_site_id
 _symmetry_equiv_pos_as_xyz
  1  'x, y, z'
loop_
 _atom_site_type_symbol
 _atom_site_label
 _atom_site_symmetry_multiplicity
 _atom_site_fract_x
 _atom_site_fract_y
 _atom_site_fract_z
 _atom_site_occupancy
  Mo  Mo0  1  0.00000000  0.00000000  0.46515005  1
  Se  Se1  1  0.00000000  0.00000000  0.32793357  1
  Se  Se2  1  0.33333333  0.66666667  0.05014048  1
  Se  Se3  1  0.33333333  0.66666667  0.41864834  1
  Se  Se4  1  0.33333333  0.66666667  0.14355114  1
  Se  Se5  1  0.33333333  0.66666667  0.51168702  1
  Se  Se6  1  0.00000000  0.00000000  0.23448171  1
  Te  Te7  1  0.00000000  0.00000000  0.71291408  1
  Te  Te8  1  0.00000000  0.00000000  0.60647560  1
  W  W9  1  0.00000000  0.00000000  0.09681702  1
  W  W10  1  0.33333333  0.66666667  0.28120411  1
  W  W11  1  0.33333333  0.66666667  0.65974588  1
