# generated using pymatgen
data_TmBiTe3
_symmetry_space_group_name_H-M   'P 1'
_cell_length_a   10.73611539
_cell_length_b   10.73611539
_cell_length_c   10.73611539
_cell_angle_alpha   23.45259817
_cell_angle_beta   23.45259817
_cell_angle_gamma   23.45259817
_symmetry_Int_Tables_number   1
_chemical_formula_structural   TmBiTe3
_chemical_formula_sum   'Tm1 Bi1 Te3'
_cell_volume   172.12168387
_cell_formula_units_Z   1
loop_
 _symmetry_equiv_pos_site_id
 _symmetry_equiv_pos_as_xyz
  1  'x, y, z'
loop_
 _atom_site_type_symbol
 _atom_site_label
 _atom_site_symmetry_multiplicity
 _atom_site_fract_x
 _atom_site_fract_y
 _atom_site_fract_z
 _atom_site_occupancy
  Bi  Bi0  1  0.60073611  0.60073611  0.60073611  1
  Te  Te1  1  0.00541310  0.00541310  0.00541310  1
  Te  Te2  1  0.21232151  0.21232151  0.21232151  1
  Te  Te3  1  0.78282877  0.78282877  0.78282877  1
  Tm  Tm4  1  0.39870151  0.39870151  0.39870151  1
