# generated using pymatgen
data_NaBiS2
_symmetry_space_group_name_H-M   'P 1'
_cell_length_a   7.10090646
_cell_length_b   5.73494742
_cell_length_c   7.09395940
_cell_angle_alpha   66.23404947
_cell_angle_beta   47.65887894
_cell_angle_gamma   66.10707159
_symmetry_Int_Tables_number   1
_chemical_formula_structural   NaBiS2
_chemical_formula_sum   'Na2 Bi2 S4'
_cell_volume   191.57590793
_cell_formula_units_Z   2
loop_
 _symmetry_equiv_pos_site_id
 _symmetry_equiv_pos_as_xyz
  1  'x, y, z'
loop_
 _atom_site_type_symbol
 _atom_site_label
 _atom_site_symmetry_multiplicity
 _atom_site_fract_x
 _atom_site_fract_y
 _atom_site_fract_z
 _atom_site_occupancy
  Bi  Bi0  1  0.73447964  0.73447964  0.76552036  1
  Bi  Bi1  1  0.48447964  0.48447964  0.51552036  1
  Na  Na2  1  0.99766914  0.99766914  0.00233086  1
  Na  Na3  1  0.24766914  0.24766914  0.25233086  1
  S  S4  1  0.50526670  0.00734726  0.50694644  1
  S  S5  1  0.00734726  0.50526670  0.98043960  1
  S  S6  1  0.26956040  0.74305356  0.24265274  1
  S  S7  1  0.74305356  0.26956040  0.74473330  1
