# generated using pymatgen
data_Mo2SeS3
_symmetry_space_group_name_H-M   'P 1'
_cell_length_a   3.22447662
_cell_length_b   3.22447662
_cell_length_c   12.64445470
_cell_angle_alpha   90.00000000
_cell_angle_beta   90.00000000
_cell_angle_gamma   120.00000000
_symmetry_Int_Tables_number   1
_chemical_formula_structural   Mo2SeS3
_chemical_formula_sum   'Mo2 Se1 S3'
_cell_volume   113.85423791
_cell_formula_units_Z   1
loop_
 _symmetry_equiv_pos_site_id
 _symmetry_equiv_pos_as_xyz
  1  'x, y, z'
loop_
 _atom_site_type_symbol
 _atom_site_label
 _atom_site_symmetry_multiplicity
 _atom_site_fract_x
 _atom_site_fract_y
 _atom_site_fract_z
 _atom_site_occupancy
  Mo  Mo0  1  0.00000000  0.00000000  0.74711860  1
  Mo  Mo1  1  0.66666667  0.33333333  0.25763946  1
  S  S2  1  0.66666667  0.33333333  0.87014591  1
  S  S3  1  0.66666667  0.33333333  0.62397372  1
  S  S4  1  0.00000000  0.00000000  0.37963558  1
  Se  Se5  1  0.00000000  0.00000000  0.12148773  1
