# generated using pymatgen
data_RbAg2SbS4
_symmetry_space_group_name_H-M   'P 1'
_cell_length_a   6.54306410
_cell_length_b   6.54306410
_cell_length_c   6.54306410
_cell_angle_alpha   116.02475651
_cell_angle_beta   116.02475651
_cell_angle_gamma   97.03531459
_symmetry_Int_Tables_number   1
_chemical_formula_structural   RbAg2SbS4
_chemical_formula_sum   'Rb1 Ag2 Sb1 S4'
_cell_volume   208.27435648
_cell_formula_units_Z   1
loop_
 _symmetry_equiv_pos_site_id
 _symmetry_equiv_pos_as_xyz
  1  'x, y, z'
loop_
 _atom_site_type_symbol
 _atom_site_label
 _atom_site_symmetry_multiplicity
 _atom_site_fract_x
 _atom_site_fract_y
 _atom_site_fract_z
 _atom_site_occupancy
  Ag  Ag0  1  0.25000000  0.75000000  0.50000000  1
  Ag  Ag1  1  0.75000000  0.25000000  0.50000000  1
  Rb  Rb2  1  0.00000000  0.00000000  0.00000000  1
  S  S3  1  0.46168253  0.46168253  0.60366572  1
  S  S4  1  0.85801680  0.85801680  0.39633428  1
  S  S5  1  0.53831747  0.14198320  0.00000000  1
  S  S6  1  0.14198320  0.53831747  -0.00000000  1
  Sb  Sb7  1  0.50000000  0.50000000  0.00000000  1
