# generated using pymatgen
data_Mo(WSe3)2
_symmetry_space_group_name_H-M   'P 1'
_cell_length_a   3.32730956
_cell_length_b   3.32730956
_cell_length_c   27.82435890
_cell_angle_alpha   90.00000000
_cell_angle_beta   90.00000000
_cell_angle_gamma   120.00000000
_symmetry_Int_Tables_number   1
_chemical_formula_structural   Mo(WSe3)2
_chemical_formula_sum   'Mo1 W2 Se6'
_cell_volume   266.77321039
_cell_formula_units_Z   1
loop_
 _symmetry_equiv_pos_site_id
 _symmetry_equiv_pos_as_xyz
  1  'x, y, z'
loop_
 _atom_site_type_symbol
 _atom_site_label
 _atom_site_symmetry_multiplicity
 _atom_site_fract_x
 _atom_site_fract_y
 _atom_site_fract_z
 _atom_site_occupancy
  Mo  Mo0  1  0.66666667  0.33333333  0.00000000  1
  Se  Se1  1  0.33333333  0.66666667  0.06013992  1
  Se  Se2  1  0.66666667  0.33333333  0.70249942  1
  Se  Se3  1  0.66666667  0.33333333  0.17661929  1
  Se  Se4  1  0.66666667  0.33333333  0.82338071  1
  Se  Se5  1  0.66666667  0.33333333  0.29750058  1
  Se  Se6  1  0.33333333  0.66666667  0.93986008  1
  W  W7  1  0.33333333  0.66666667  0.76290243  1
  W  W8  1  0.33333333  0.66666667  0.23709757  1
