# generated using pymatgen
data_Te4MoW3Se4
_symmetry_space_group_name_H-M   'P 1'
_cell_length_a   3.44103989
_cell_length_b   3.44103989
_cell_length_c   39.01620650
_cell_angle_alpha   90.00000000
_cell_angle_beta   90.00000000
_cell_angle_gamma   120.00000000
_symmetry_Int_Tables_number   1
_chemical_formula_structural   Te4MoW3Se4
_chemical_formula_sum   'Te4 Mo1 W3 Se4'
_cell_volume   400.08759521
_cell_formula_units_Z   1
loop_
 _symmetry_equiv_pos_site_id
 _symmetry_equiv_pos_as_xyz
  1  'x, y, z'
loop_
 _atom_site_type_symbol
 _atom_site_label
 _atom_site_symmetry_multiplicity
 _atom_site_fract_x
 _atom_site_fract_y
 _atom_site_fract_z
 _atom_site_occupancy
  Mo  Mo0  1  0.66666667  0.33333333  0.28179757  1
  Se  Se1  1  0.66666667  0.33333333  0.05198028  1
  Se  Se2  1  0.66666667  0.33333333  0.42757314  1
  Se  Se3  1  0.66666667  0.33333333  0.13600960  1
  Se  Se4  1  0.66666667  0.33333333  0.51175395  1
  Te  Te5  1  0.33333333  0.66666667  0.32941743  1
  Te  Te6  1  0.33333333  0.66666667  0.70526269  1
  Te  Te7  1  0.33333333  0.66666667  0.23418276  1
  Te  Te8  1  0.33333333  0.66666667  0.60964516  1
  W  W9  1  0.33333333  0.66666667  0.09392689  1
  W  W10  1  0.33333333  0.66666667  0.46966485  1
  W  W11  1  0.66666667  0.33333333  0.65753368  1
