# generated using pymatgen
data_Te4Mo3WSe4
_symmetry_space_group_name_H-M   'P 1'
_cell_length_a   3.44260024
_cell_length_b   3.44260024
_cell_length_c   36.68237599
_cell_angle_alpha   90.00000000
_cell_angle_beta   90.00000000
_cell_angle_gamma   120.00000000
_symmetry_Int_Tables_number   1
_chemical_formula_structural   Te4Mo3WSe4
_chemical_formula_sum   'Te4 Mo3 W1 Se4'
_cell_volume   376.49679149
_cell_formula_units_Z   1
loop_
 _symmetry_equiv_pos_site_id
 _symmetry_equiv_pos_as_xyz
  1  'x, y, z'
loop_
 _atom_site_type_symbol
 _atom_site_label
 _atom_site_symmetry_multiplicity
 _atom_site_fract_x
 _atom_site_fract_y
 _atom_site_fract_z
 _atom_site_occupancy
  Mo  Mo0  1  0.00000000  0.00000000  0.09490665  1
  Mo  Mo1  1  0.33333333  0.66666667  0.28168616  1
  Mo  Mo2  1  0.33333333  0.66666667  0.65700339  1
  Se  Se3  1  0.33333333  0.66666667  0.05036551  1
  Se  Se4  1  0.33333333  0.66666667  0.42452185  1
  Se  Se5  1  0.33333333  0.66666667  0.13953706  1
  Se  Se6  1  0.33333333  0.66666667  0.51410920  1
  Te  Te7  1  0.00000000  0.00000000  0.33238091  1
  Te  Te8  1  0.00000000  0.00000000  0.70764211  1
  Te  Te9  1  0.00000000  0.00000000  0.23098509  1
  Te  Te10  1  0.00000000  0.00000000  0.60629238  1
  W  W11  1  0.00000000  0.00000000  0.46931569  1
