# generated using pymatgen
data_Te2Mo(WSe2)2
_symmetry_space_group_name_H-M   'P 1'
_cell_length_a   3.40167474
_cell_length_b   3.40167474
_cell_length_c   29.64471101
_cell_angle_alpha   90.00000000
_cell_angle_beta   90.00000000
_cell_angle_gamma   120.00000000
_symmetry_Int_Tables_number   1
_chemical_formula_structural   Te2Mo(WSe2)2
_chemical_formula_sum   'Te2 Mo1 W2 Se4'
_cell_volume   297.07316556
_cell_formula_units_Z   1
loop_
 _symmetry_equiv_pos_site_id
 _symmetry_equiv_pos_as_xyz
  1  'x, y, z'
loop_
 _atom_site_type_symbol
 _atom_site_label
 _atom_site_symmetry_multiplicity
 _atom_site_fract_x
 _atom_site_fract_y
 _atom_site_fract_z
 _atom_site_occupancy
  Mo  Mo0  1  0.33333333  0.66666667  0.00000000  1
  Se  Se1  1  0.33333333  0.66666667  0.71061981  1
  Se  Se2  1  0.33333333  0.66666667  0.17767643  1
  Se  Se3  1  0.33333333  0.66666667  0.82232357  1
  Se  Se4  1  0.33333333  0.66666667  0.28938019  1
  Te  Te5  1  0.00000000  0.00000000  0.06329337  1
  Te  Te6  1  0.00000000  0.00000000  0.93670663  1
  W  W7  1  0.00000000  0.00000000  0.76642317  1
  W  W8  1  0.00000000  0.00000000  0.23357683  1
