# generated using pymatgen
data_HoAgSe2
_symmetry_space_group_name_H-M   'P 1'
_cell_length_a   7.32342175
_cell_length_b   7.32342175
_cell_length_c   7.32342175
_cell_angle_alpha   134.65856896
_cell_angle_beta   134.65856896
_cell_angle_gamma   66.06117161
_symmetry_Int_Tables_number   1
_chemical_formula_structural   HoAgSe2
_chemical_formula_sum   'Ho2 Ag2 Se4'
_cell_volume   195.67889855
_cell_formula_units_Z   2
loop_
 _symmetry_equiv_pos_site_id
 _symmetry_equiv_pos_as_xyz
  1  'x, y, z'
loop_
 _atom_site_type_symbol
 _atom_site_label
 _atom_site_symmetry_multiplicity
 _atom_site_fract_x
 _atom_site_fract_y
 _atom_site_fract_z
 _atom_site_occupancy
  Ag  Ag0  1  0.28652713  0.78652713  0.50000000  1
  Ag  Ag1  1  0.53652713  0.53652713  0.00000000  1
  Ho  Ho2  1  0.75220467  0.25220467  0.50000000  1
  Ho  Ho3  1  0.00220467  0.00220467  0.00000000  1
  Se  Se4  1  0.98317108  0.48317108  0.50000000  1
  Se  Se5  1  0.23317108  0.23317108  0.00000000  1
  Se  Se6  1  0.51809512  0.01809512  0.50000000  1
  Se  Se7  1  0.76809512  0.76809512  0.00000000  1
