# generated using pymatgen
data_Dy2MgSe4
_symmetry_space_group_name_H-M   'P 1'
_cell_length_a   7.51140582
_cell_length_b   7.51140582
_cell_length_c   7.51140582
_cell_angle_alpha   110.77819330
_cell_angle_beta   110.77819330
_cell_angle_gamma   106.88775574
_symmetry_Int_Tables_number   1
_chemical_formula_structural   Dy2MgSe4
_chemical_formula_sum   'Dy4 Mg2 Se8'
_cell_volume   325.74879692
_cell_formula_units_Z   2
loop_
 _symmetry_equiv_pos_site_id
 _symmetry_equiv_pos_as_xyz
  1  'x, y, z'
loop_
 _atom_site_type_symbol
 _atom_site_label
 _atom_site_symmetry_multiplicity
 _atom_site_fract_x
 _atom_site_fract_y
 _atom_site_fract_z
 _atom_site_occupancy
  Dy  Dy0  1  0.37500000  0.50035928  0.62535928  1
  Dy  Dy1  1  0.49964072  0.12500000  0.87464072  1
  Dy  Dy2  1  0.87500000  0.74964072  0.37464072  1
  Dy  Dy3  1  0.25035928  0.62500000  0.12535928  1
  Mg  Mg4  1  0.75000000  0.25000000  0.50000000  1
  Mg  Mg5  1  0.00000000  0.00000000  0.00000000  1
  Se  Se6  1  0.63382034  0.87188335  0.63014813  1
  Se  Se7  1  0.12811665  0.75826478  0.76193699  1
  Se  Se8  1  0.24173522  0.00367221  0.36985187  1
  Se  Se9  1  0.99632779  0.36617966  0.23806301  1
  Se  Se10  1  0.11617966  0.24632779  0.73806301  1
  Se  Se11  1  0.62188335  0.88382034  0.13014813  1
  Se  Se12  1  0.50826478  0.37811665  0.26193699  1
  Se  Se13  1  0.75367221  0.49173522  0.86985187  1
