# generated using pymatgen
data_MoW3Se8
_symmetry_space_group_name_H-M   'P 1'
_cell_length_a   3.32756918
_cell_length_b   3.32756918
_cell_length_c   35.28388347
_cell_angle_alpha   90.00000000
_cell_angle_beta   90.00000000
_cell_angle_gamma   120.00000000
_symmetry_Int_Tables_number   1
_chemical_formula_structural   MoW3Se8
_chemical_formula_sum   'Mo1 W3 Se8'
_cell_volume   338.34611731
_cell_formula_units_Z   1
loop_
 _symmetry_equiv_pos_site_id
 _symmetry_equiv_pos_as_xyz
  1  'x, y, z'
loop_
 _atom_site_type_symbol
 _atom_site_label
 _atom_site_symmetry_multiplicity
 _atom_site_fract_x
 _atom_site_fract_y
 _atom_site_fract_z
 _atom_site_occupancy
  Mo  Mo0  1  0.00000000  0.00000000  0.09485837  1
  Se  Se1  1  0.00000000  0.00000000  0.32962465  1
  Se  Se2  1  0.00000000  0.00000000  0.70438840  1
  Se  Se3  1  0.33333333  0.66666667  0.04748439  1
  Se  Se4  1  0.33333333  0.66666667  0.42167613  1
  Se  Se5  1  0.33333333  0.66666667  0.14229146  1
  Se  Se6  1  0.33333333  0.66666667  0.51703814  1
  Se  Se7  1  0.00000000  0.00000000  0.23425805  1
  Se  Se8  1  0.00000000  0.00000000  0.60907108  1
  W  W9  1  0.00000000  0.00000000  0.46935669  1
  W  W10  1  0.33333333  0.66666667  0.28194213  1
  W  W11  1  0.33333333  0.66666667  0.65675852  1
