# generated using pymatgen
data_Rb2Se3
_symmetry_space_group_name_H-M   'P 1'
_cell_length_a   6.70972847
_cell_length_b   6.70972847
_cell_length_c   7.84040234
_cell_angle_alpha   90.00000000
_cell_angle_beta   90.00000000
_cell_angle_gamma   109.03628800
_symmetry_Int_Tables_number   1
_chemical_formula_structural   Rb2Se3
_chemical_formula_sum   'Rb4 Se6'
_cell_volume   333.67486923
_cell_formula_units_Z   2
loop_
 _symmetry_equiv_pos_site_id
 _symmetry_equiv_pos_as_xyz
  1  'x, y, z'
loop_
 _atom_site_type_symbol
 _atom_site_label
 _atom_site_symmetry_multiplicity
 _atom_site_fract_x
 _atom_site_fract_y
 _atom_site_fract_z
 _atom_site_occupancy
  Rb  Rb0  1  0.58051274  0.41948726  0.17235029  1
  Rb  Rb1  1  0.41948726  0.58051274  0.67235029  1
  Rb  Rb2  1  0.09729043  0.90270957  0.45197448  1
  Rb  Rb3  1  0.90270957  0.09729043  0.95197448  1
  Se  Se4  1  0.08197437  0.40589158  0.32397251  1
  Se  Se5  1  0.91802563  0.59410842  0.82397251  1
  Se  Se6  1  0.59410842  0.91802563  0.32397251  1
  Se  Se7  1  0.40589158  0.08197437  0.82397251  1
  Se  Se8  1  0.21177836  0.78822164  0.00473020  1
  Se  Se9  1  0.78822164  0.21177836  0.50473020  1
