# generated using pymatgen
data_Na2Se
_symmetry_space_group_name_H-M   'P 1'
_cell_length_a   5.16872915
_cell_length_b   5.16872915
_cell_length_c   4.35671298
_cell_angle_alpha   90.06537524
_cell_angle_beta   90.06537524
_cell_angle_gamma   46.88010762
_symmetry_Int_Tables_number   1
_chemical_formula_structural   Na2Se
_chemical_formula_sum   'Na2 Se1'
_cell_volume   84.95802503
_cell_formula_units_Z   1
loop_
 _symmetry_equiv_pos_site_id
 _symmetry_equiv_pos_as_xyz
  1  'x, y, z'
loop_
 _atom_site_type_symbol
 _atom_site_label
 _atom_site_symmetry_multiplicity
 _atom_site_fract_x
 _atom_site_fract_y
 _atom_site_fract_z
 _atom_site_occupancy
  Na  Na0  1  0.30753293  0.30753293  0.07425586  1
  Na  Na1  1  0.56356098  0.56356098  0.57483541  1
  Se  Se2  1  0.01401194  0.01401194  0.07469997  1
