# generated using pymatgen
data_MoW2(SeS2)2
_symmetry_space_group_name_H-M   'P 1'
_cell_length_a   3.23581768
_cell_length_b   3.23581768
_cell_length_c   19.22552680
_cell_angle_alpha   94.86868493
_cell_angle_beta   94.86868493
_cell_angle_gamma   60.00070212
_symmetry_Int_Tables_number   1
_chemical_formula_structural   MoW2(SeS2)2
_chemical_formula_sum   'Mo1 W2 Se2 S4'
_cell_volume   173.49396466
_cell_formula_units_Z   1
loop_
 _symmetry_equiv_pos_site_id
 _symmetry_equiv_pos_as_xyz
  1  'x, y, z'
loop_
 _atom_site_type_symbol
 _atom_site_label
 _atom_site_symmetry_multiplicity
 _atom_site_fract_x
 _atom_site_fract_y
 _atom_site_fract_z
 _atom_site_occupancy
  Mo  Mo0  1  0.55528123  0.55528123  0.01325501  1
  S  S1  1  0.69547874  0.69547874  0.43244732  1
  S  S2  1  0.41593013  0.41593013  0.59524923  1
  S  S3  1  0.47078792  0.47078792  0.75836660  1
  S  S4  1  0.64060502  0.64060502  0.26928811  1
  Se  Se5  1  0.19196415  0.19196415  0.92410344  1
  Se  Se6  1  0.25194443  0.25194443  0.10242417  1
  W  W7  1  0.77670241  0.77670241  0.67682437  1
  W  W8  1  0.33471096  0.33471096  0.35088374  1
