# generated using pymatgen
data_Pr2PbSe4
_symmetry_space_group_name_H-M   'P 1'
_cell_length_a   7.86440012
_cell_length_b   7.86440012
_cell_length_c   7.86440012
_cell_angle_alpha   109.44710217
_cell_angle_beta   109.44710217
_cell_angle_gamma   109.51946835
_symmetry_Int_Tables_number   1
_chemical_formula_structural   Pr2PbSe4
_chemical_formula_sum   'Pr4 Pb2 Se8'
_cell_volume   374.43348659
_cell_formula_units_Z   2
loop_
 _symmetry_equiv_pos_site_id
 _symmetry_equiv_pos_as_xyz
  1  'x, y, z'
loop_
 _atom_site_type_symbol
 _atom_site_label
 _atom_site_symmetry_multiplicity
 _atom_site_fract_x
 _atom_site_fract_y
 _atom_site_fract_z
 _atom_site_occupancy
  Pb  Pb0  1  0.75000000  0.25000000  0.50000000  1
  Pb  Pb1  1  0.00000000  0.00000000  0.00000000  1
  Pr  Pr2  1  0.50794912  0.12500000  0.88294912  1
  Pr  Pr3  1  0.87500000  0.75794912  0.38294912  1
  Pr  Pr4  1  0.24205088  0.62500000  0.11705088  1
  Pr  Pr5  1  0.37500000  0.49205088  0.61705088  1
  Se  Se6  1  0.98152109  0.38360431  0.25143674  1
  Se  Se7  1  0.48008436  0.38216757  0.24856326  1
  Se  Se8  1  0.26991564  0.01847891  0.40208322  1
  Se  Se9  1  0.61639569  0.86783243  0.59791678  1
  Se  Se10  1  0.13360431  0.23152109  0.75143674  1
  Se  Se11  1  0.61783243  0.86639569  0.09791678  1
  Se  Se12  1  0.76847891  0.51991564  0.90208322  1
  Se  Se13  1  0.13216757  0.73008436  0.74856326  1
