# generated using pymatgen
data_TaTl3(SeS)2
_symmetry_space_group_name_H-M   'P 1'
_cell_length_a   6.95775235
_cell_length_b   6.64634728
_cell_length_c   7.84087533
_cell_angle_alpha   56.68665394
_cell_angle_beta   52.96591141
_cell_angle_gamma   70.34743465
_symmetry_Int_Tables_number   1
_chemical_formula_structural   TaTl3(SeS)2
_chemical_formula_sum   'Ta1 Tl3 Se2 S2'
_cell_volume   241.87732051
_cell_formula_units_Z   1
loop_
 _symmetry_equiv_pos_site_id
 _symmetry_equiv_pos_as_xyz
  1  'x, y, z'
loop_
 _atom_site_type_symbol
 _atom_site_label
 _atom_site_symmetry_multiplicity
 _atom_site_fract_x
 _atom_site_fract_y
 _atom_site_fract_z
 _atom_site_occupancy
  S  S0  1  0.33219928  0.98891558  0.66780072  1
  S  S1  1  0.98891558  0.33219928  0.01108442  1
  Se  Se2  1  0.99358937  0.64055029  0.35944971  1
  Se  Se3  1  0.64055029  0.99358937  0.00641063  1
  Ta  Ta4  1  0.98935303  0.98935303  0.01064697  1
  Tl  Tl5  1  0.03689542  0.03689542  0.46310458  1
  Tl  Tl6  1  0.53689542  0.53689542  0.96310458  1
  Tl  Tl7  1  0.48160263  0.48160263  0.51839737  1
