# generated using pymatgen
data_MoW3(SeS3)2
_symmetry_space_group_name_H-M   'P 1'
_cell_length_a   3.22370675
_cell_length_b   3.22370675
_cell_length_c   33.71117856
_cell_angle_alpha   90.00000000
_cell_angle_beta   90.00000000
_cell_angle_gamma   120.00000000
_symmetry_Int_Tables_number   1
_chemical_formula_structural   MoW3(SeS3)2
_chemical_formula_sum   'Mo1 W3 Se2 S6'
_cell_volume   303.40003317
_cell_formula_units_Z   1
loop_
 _symmetry_equiv_pos_site_id
 _symmetry_equiv_pos_as_xyz
  1  'x, y, z'
loop_
 _atom_site_type_symbol
 _atom_site_label
 _atom_site_symmetry_multiplicity
 _atom_site_fract_x
 _atom_site_fract_y
 _atom_site_fract_z
 _atom_site_occupancy
  Mo  Mo0  1  0.66666667  0.33333333  0.28148906  1
  S  S1  1  0.33333333  0.66666667  0.70479392  1
  S  S2  1  0.66666667  0.33333333  0.04336684  1
  S  S3  1  0.66666667  0.33333333  0.42684078  1
  S  S4  1  0.66666667  0.33333333  0.13617921  1
  S  S5  1  0.66666667  0.33333333  0.51968109  1
  S  S6  1  0.33333333  0.66666667  0.61199335  1
  Se  Se7  1  0.33333333  0.66666667  0.33222966  1
  Se  Se8  1  0.33333333  0.66666667  0.23074730  1
  W  W9  1  0.33333333  0.66666667  0.08974756  1
  W  W10  1  0.33333333  0.66666667  0.47327000  1
  W  W11  1  0.66666667  0.33333333  0.65841024  1
