# generated using pymatgen
data_PbS
_symmetry_space_group_name_H-M   'P 1'
_cell_length_a   6.90822174
_cell_length_b   5.85955035
_cell_length_c   6.10271936
_cell_angle_alpha   90.00000000
_cell_angle_beta   90.00000000
_cell_angle_gamma   90.00000000
_symmetry_Int_Tables_number   1
_chemical_formula_structural   PbS
_chemical_formula_sum   'Pb4 S4'
_cell_volume   247.03242339
_cell_formula_units_Z   4
loop_
 _symmetry_equiv_pos_site_id
 _symmetry_equiv_pos_as_xyz
  1  'x, y, z'
loop_
 _atom_site_type_symbol
 _atom_site_label
 _atom_site_symmetry_multiplicity
 _atom_site_fract_x
 _atom_site_fract_y
 _atom_site_fract_z
 _atom_site_occupancy
  Pb  Pb0  1  0.75000000  0.33491512  0.99135017  1
  Pb  Pb1  1  0.25000000  0.66508488  0.99135017  1
  Pb  Pb2  1  0.25000000  0.17143006  0.44573064  1
  Pb  Pb3  1  0.75000000  0.82856994  0.44573064  1
  S  S4  1  0.50000000  0.00000000  0.11457324  1
  S  S5  1  0.00000000  0.00000000  0.11457324  1
  S  S6  1  0.75000000  0.27396655  0.56574594  1
  S  S7  1  0.25000000  0.72603345  0.56574594  1
