# generated using pymatgen
data_K2CdSnSe4
_symmetry_space_group_name_H-M   'P 1'
_cell_length_a   6.69675569
_cell_length_b   6.69675569
_cell_length_c   6.69675569
_cell_angle_alpha   105.94918526
_cell_angle_beta   105.94918526
_cell_angle_gamma   116.77131166
_symmetry_Int_Tables_number   1
_chemical_formula_structural   K2CdSnSe4
_chemical_formula_sum   'K2 Cd1 Sn1 Se4'
_cell_volume   228.34241837
_cell_formula_units_Z   1
loop_
 _symmetry_equiv_pos_site_id
 _symmetry_equiv_pos_as_xyz
  1  'x, y, z'
loop_
 _atom_site_type_symbol
 _atom_site_label
 _atom_site_symmetry_multiplicity
 _atom_site_fract_x
 _atom_site_fract_y
 _atom_site_fract_z
 _atom_site_occupancy
  Cd  Cd0  1  0.50000000  0.50000000  0.00000000  1
  K  K1  1  0.50000000  0.00000000  0.50000000  1
  K  K2  1  0.00000000  0.50000000  0.50000000  1
  Se  Se3  1  0.94014683  0.94014683  0.34937808  1
  Se  Se4  1  0.59076874  0.59076874  0.65062192  1
  Se  Se5  1  0.05985317  0.40923126  -0.00000000  1
  Se  Se6  1  0.40923126  0.05985317  -0.00000000  1
  Sn  Sn7  1  0.00000000  0.00000000  0.00000000  1
