# generated using pymatgen
data_Mo3WSe8
_symmetry_space_group_name_H-M   'P 1'
_cell_length_a   3.32744269
_cell_length_b   3.32744269
_cell_length_c   35.20157838
_cell_angle_alpha   90.00000000
_cell_angle_beta   90.00000000
_cell_angle_gamma   120.00000000
_symmetry_Int_Tables_number   1
_chemical_formula_structural   Mo3WSe8
_chemical_formula_sum   'Mo3 W1 Se8'
_cell_volume   337.53120992
_cell_formula_units_Z   1
loop_
 _symmetry_equiv_pos_site_id
 _symmetry_equiv_pos_as_xyz
  1  'x, y, z'
loop_
 _atom_site_type_symbol
 _atom_site_label
 _atom_site_symmetry_multiplicity
 _atom_site_fract_x
 _atom_site_fract_y
 _atom_site_fract_z
 _atom_site_occupancy
  Mo  Mo0  1  0.00000000  0.00000000  0.09488045  1
  Mo  Mo1  1  0.33333333  0.66666667  0.28188354  1
  Mo  Mo2  1  0.33333333  0.66666667  0.65683141  1
  Se  Se3  1  0.00000000  0.00000000  0.32942031  1
  Se  Se4  1  0.00000000  0.00000000  0.70431870  1
  Se  Se5  1  0.33333333  0.66666667  0.04739400  1
  Se  Se6  1  0.33333333  0.66666667  0.42152176  1
  Se  Se7  1  0.33333333  0.66666667  0.14242832  1
  Se  Se8  1  0.33333333  0.66666667  0.51712020  1
  Se  Se9  1  0.00000000  0.00000000  0.23434424  1
  Se  Se10  1  0.00000000  0.00000000  0.60928569  1
  W  W11  1  0.00000000  0.00000000  0.46932037  1
