# generated using pymatgen
data_KAg2SbS4
_symmetry_space_group_name_H-M   'P 1'
_cell_length_a   6.47090831
_cell_length_b   6.47090831
_cell_length_c   6.47090831
_cell_angle_alpha   115.52925240
_cell_angle_beta   115.52925240
_cell_angle_gamma   97.93538756
_symmetry_Int_Tables_number   1
_chemical_formula_structural   KAg2SbS4
_chemical_formula_sum   'K1 Ag2 Sb1 S4'
_cell_volume   202.43422379
_cell_formula_units_Z   1
loop_
 _symmetry_equiv_pos_site_id
 _symmetry_equiv_pos_as_xyz
  1  'x, y, z'
loop_
 _atom_site_type_symbol
 _atom_site_label
 _atom_site_symmetry_multiplicity
 _atom_site_fract_x
 _atom_site_fract_y
 _atom_site_fract_z
 _atom_site_occupancy
  Ag  Ag0  1  0.25000000  0.75000000  0.50000000  1
  Ag  Ag1  1  0.75000000  0.25000000  0.50000000  1
  K  K2  1  0.00000000  0.00000000  0.00000000  1
  S  S3  1  0.54110510  0.13912287  0.00000000  1
  S  S4  1  0.45889490  0.45889490  0.59801777  1
  S  S5  1  0.86087713  0.86087713  0.40198223  1
  S  S6  1  0.13912287  0.54110510  0.00000000  1
  Sb  Sb7  1  0.50000000  0.50000000  0.00000000  1
