# generated using pymatgen
data_SrS3
_symmetry_space_group_name_H-M   'P 1'
_cell_length_a   6.87547031
_cell_length_b   5.40005592
_cell_length_c   5.40005592
_cell_angle_alpha   97.27917404
_cell_angle_beta   90.00000000
_cell_angle_gamma   90.00000000
_symmetry_Int_Tables_number   1
_chemical_formula_structural   SrS3
_chemical_formula_sum   'Sr2 S6'
_cell_volume   198.87700663
_cell_formula_units_Z   2
loop_
 _symmetry_equiv_pos_site_id
 _symmetry_equiv_pos_as_xyz
  1  'x, y, z'
loop_
 _atom_site_type_symbol
 _atom_site_label
 _atom_site_symmetry_multiplicity
 _atom_site_fract_x
 _atom_site_fract_y
 _atom_site_fract_z
 _atom_site_occupancy
  S  S0  1  0.00000000  0.46298240  0.46298240  1
  S  S1  1  0.50000000  0.96298240  0.96298240  1
  S  S2  1  0.14082332  0.47342282  0.80871046  1
  S  S3  1  0.85917668  0.80871046  0.47342282  1
  S  S4  1  0.35917668  0.97342282  0.30871046  1
  S  S5  1  0.64082332  0.30871046  0.97342282  1
  Sr  Sr6  1  0.00000000  0.99878432  0.99878432  1
  Sr  Sr7  1  0.50000000  0.49878432  0.49878432  1
