# generated using pymatgen
data_Mo3(SeS2)2
_symmetry_space_group_name_H-M   'P 1'
_cell_length_a   3.23396728
_cell_length_b   3.23396728
_cell_length_c   27.81004451
_cell_angle_alpha   90.00000000
_cell_angle_beta   90.00000000
_cell_angle_gamma   120.00000000
_symmetry_Int_Tables_number   1
_chemical_formula_structural   Mo3(SeS2)2
_chemical_formula_sum   'Mo3 Se2 S4'
_cell_volume   251.88572655
_cell_formula_units_Z   1
loop_
 _symmetry_equiv_pos_site_id
 _symmetry_equiv_pos_as_xyz
  1  'x, y, z'
loop_
 _atom_site_type_symbol
 _atom_site_label
 _atom_site_symmetry_multiplicity
 _atom_site_fract_x
 _atom_site_fract_y
 _atom_site_fract_z
 _atom_site_occupancy
  Mo  Mo0  1  0.66666667  0.33333333  0.76862336  1
  Mo  Mo1  1  0.66666667  0.33333333  0.23137664  1
  Mo  Mo2  1  0.00000000  0.00000000  0.00000000  1
  S  S3  1  0.00000000  0.00000000  0.71282391  1
  S  S4  1  0.00000000  0.00000000  0.17550217  1
  S  S5  1  0.00000000  0.00000000  0.82449783  1
  S  S6  1  0.00000000  0.00000000  0.28717609  1
  Se  Se7  1  0.66666667  0.33333333  0.06137320  1
  Se  Se8  1  0.66666667  0.33333333  0.93862680  1
