# generated using pymatgen
data_MoW(SeS)2
_symmetry_space_group_name_H-M   'P 1'
_cell_length_a   3.25728474
_cell_length_b   3.25728474
_cell_length_c   34.34268115
_cell_angle_alpha   90.00000000
_cell_angle_beta   90.00000000
_cell_angle_gamma   120.00000000
_symmetry_Int_Tables_number   1
_chemical_formula_structural   MoW(SeS)2
_chemical_formula_sum   'Mo2 W2 Se4 S4'
_cell_volume   315.55588210
_cell_formula_units_Z   2
loop_
 _symmetry_equiv_pos_site_id
 _symmetry_equiv_pos_as_xyz
  1  'x, y, z'
loop_
 _atom_site_type_symbol
 _atom_site_label
 _atom_site_symmetry_multiplicity
 _atom_site_fract_x
 _atom_site_fract_y
 _atom_site_fract_z
 _atom_site_occupancy
  Mo  Mo0  1  0.00000000  0.00000000  0.09491965  1
  Mo  Mo1  1  0.33333333  0.66666667  0.28180883  1
  S  S2  1  0.33333333  0.66666667  0.04994774  1
  S  S3  1  0.33333333  0.66666667  0.42428042  1
  S  S4  1  0.33333333  0.66666667  0.13996270  1
  S  S5  1  0.33333333  0.66666667  0.51475087  1
  Se  Se6  1  0.00000000  0.00000000  0.33125270  1
  Se  Se7  1  0.00000000  0.00000000  0.70636902  1
  Se  Se8  1  0.00000000  0.00000000  0.23236182  1
  Se  Se9  1  0.00000000  0.00000000  0.60691267  1
  W  W10  1  0.00000000  0.00000000  0.46951579  1
  W  W11  1  0.33333333  0.66666667  0.65666680  1
