# generated using pymatgen
data_AlSeBr
_symmetry_space_group_name_H-M   'P 1'
_cell_length_a   4.32968267
_cell_length_b   4.32968267
_cell_length_c   8.04798054
_cell_angle_alpha   90.00000000
_cell_angle_beta   90.00000000
_cell_angle_gamma   90.00000000
_symmetry_Int_Tables_number   1
_chemical_formula_structural   AlSeBr
_chemical_formula_sum   'Al1 Se1 Br1'
_cell_volume   150.86866678
_cell_formula_units_Z   1
loop_
 _symmetry_equiv_pos_site_id
 _symmetry_equiv_pos_as_xyz
  1  'x, y, z'
loop_
 _atom_site_type_symbol
 _atom_site_label
 _atom_site_symmetry_multiplicity
 _atom_site_fract_x
 _atom_site_fract_y
 _atom_site_fract_z
 _atom_site_occupancy
  Al  Al0  1  0.00000000  0.00000000  0.33833160  1
  Br  Br1  1  0.00000000  0.00000000  0.06072948  1
  Se  Se2  1  0.00000000  0.00000000  0.60341467  1
