# generated using pymatgen
data_RbMnCuS2
_symmetry_space_group_name_H-M   'P 1'
_cell_length_a   7.34016875
_cell_length_b   7.34016875
_cell_length_c   7.34016875
_cell_angle_alpha   148.65752067
_cell_angle_beta   148.65752067
_cell_angle_gamma   44.91566325
_symmetry_Int_Tables_number   1
_chemical_formula_structural   RbMnCuS2
_chemical_formula_sum   'Rb1 Mn1 Cu1 S2'
_cell_volume   106.66701271
_cell_formula_units_Z   1
loop_
 _symmetry_equiv_pos_site_id
 _symmetry_equiv_pos_as_xyz
  1  'x, y, z'
loop_
 _atom_site_type_symbol
 _atom_site_label
 _atom_site_symmetry_multiplicity
 _atom_site_fract_x
 _atom_site_fract_y
 _atom_site_fract_z
 _atom_site_occupancy
  Cu  Cu0  1  0.75000000  0.25000000  0.50000000  1
  Mn  Mn1  1  0.25000000  0.75000000  0.50000000  1
  Rb  Rb2  1  0.00000000  0.00000000  0.00000000  1
  S  S3  1  0.35265822  0.35265822  0.00000000  1
  S  S4  1  0.64734178  0.64734178  0.00000000  1
