# generated using pymatgen
data_Sm2PbS4
_symmetry_space_group_name_H-M   'P 1'
_cell_length_a   7.45480903
_cell_length_b   7.45480903
_cell_length_c   7.45480903
_cell_angle_alpha   109.38600309
_cell_angle_beta   109.38600309
_cell_angle_gamma   109.64179050
_symmetry_Int_Tables_number   1
_chemical_formula_structural   Sm2PbS4
_chemical_formula_sum   'Sm4 Pb2 S8'
_cell_volume   318.92222817
_cell_formula_units_Z   2
loop_
 _symmetry_equiv_pos_site_id
 _symmetry_equiv_pos_as_xyz
  1  'x, y, z'
loop_
 _atom_site_type_symbol
 _atom_site_label
 _atom_site_symmetry_multiplicity
 _atom_site_fract_x
 _atom_site_fract_y
 _atom_site_fract_z
 _atom_site_occupancy
  Pb  Pb0  1  0.75000000  0.25000000  0.50000000  1
  Pb  Pb1  1  0.00000000  0.00000000  0.00000000  1
  S  S2  1  0.13636180  0.73352678  0.74730523  1
  S  S3  1  0.26647322  0.01377846  0.40283502  1
  S  S4  1  0.48352678  0.38636180  0.24730523  1
  S  S5  1  0.76377846  0.51647322  0.90283502  1
  S  S6  1  0.61363820  0.86094344  0.09716498  1
  S  S7  1  0.61094344  0.86363820  0.59716498  1
  S  S8  1  0.98622154  0.38905656  0.25269477  1
  S  S9  1  0.13905656  0.23622154  0.75269477  1
  Sm  Sm10  1  0.24208476  0.62500000  0.11708476  1
  Sm  Sm11  1  0.37500000  0.49208476  0.61708476  1
  Sm  Sm12  1  0.50791524  0.12500000  0.88291524  1
  Sm  Sm13  1  0.87500000  0.75791524  0.38291524  1
