# generated using pymatgen
data_Na2PtSe2
_symmetry_space_group_name_H-M   'P 1'
_cell_length_a   5.68142746
_cell_length_b   5.68142746
_cell_length_c   11.29374788
_cell_angle_alpha   90.00000000
_cell_angle_beta   90.00000000
_cell_angle_gamma   141.59263093
_symmetry_Int_Tables_number   1
_chemical_formula_structural   Na2PtSe2
_chemical_formula_sum   'Na4 Pt2 Se4'
_cell_volume   226.47403732
_cell_formula_units_Z   2
loop_
 _symmetry_equiv_pos_site_id
 _symmetry_equiv_pos_as_xyz
  1  'x, y, z'
loop_
 _atom_site_type_symbol
 _atom_site_label
 _atom_site_symmetry_multiplicity
 _atom_site_fract_x
 _atom_site_fract_y
 _atom_site_fract_z
 _atom_site_occupancy
  Na  Na0  1  0.56166313  0.43833687  0.86821370  1
  Na  Na1  1  0.43833687  0.56166313  0.36821370  1
  Na  Na2  1  0.17290739  0.82709261  0.59810415  1
  Na  Na3  1  0.82709261  0.17290739  0.09810415  1
  Pt  Pt4  1  0.86193108  0.13806892  0.75193609  1
  Pt  Pt5  1  0.13806892  0.86193108  0.25193609  1
  Se  Se6  1  0.44784652  0.55215348  0.62866027  1
  Se  Se7  1  0.55215348  0.44784652  0.12866027  1
  Se  Se8  1  0.27641369  0.72358631  0.87538480  1
  Se  Se9  1  0.72358631  0.27641369  0.37538480  1
