# generated using pymatgen
data_GaAgSe2
_symmetry_space_group_name_H-M   'P 1'
_cell_length_a   7.02093257
_cell_length_b   7.02093257
_cell_length_c   7.02093257
_cell_angle_alpha   129.15767600
_cell_angle_beta   129.15767600
_cell_angle_gamma   74.75699841
_symmetry_Int_Tables_number   1
_chemical_formula_structural   GaAgSe2
_chemical_formula_sum   'Ga2 Ag2 Se4'
_cell_volume   202.70978935
_cell_formula_units_Z   2
loop_
 _symmetry_equiv_pos_site_id
 _symmetry_equiv_pos_as_xyz
  1  'x, y, z'
loop_
 _atom_site_type_symbol
 _atom_site_label
 _atom_site_symmetry_multiplicity
 _atom_site_fract_x
 _atom_site_fract_y
 _atom_site_fract_z
 _atom_site_occupancy
  Ag  Ag0  1  0.00000000  0.00000000  0.00000000  1
  Ag  Ag1  1  0.75000000  0.25000000  0.50000000  1
  Ga  Ga2  1  0.25000000  0.75000000  0.50000000  1
  Ga  Ga3  1  0.50000000  0.50000000  0.00000000  1
  Se  Se4  1  0.59658992  0.62500000  0.47158992  1
  Se  Se5  1  0.37500000  0.84658992  0.97158992  1
  Se  Se6  1  0.15341008  0.12500000  0.52841008  1
  Se  Se7  1  0.87500000  0.40341008  0.02841008  1
