# generated using pymatgen
data_DyTl2InS4
_symmetry_space_group_name_H-M   'P 1'
_cell_length_a   6.50007548
_cell_length_b   6.50007548
_cell_length_c   6.50007548
_cell_angle_alpha   106.13398270
_cell_angle_beta   106.13398270
_cell_angle_gamma   116.37415497
_symmetry_Int_Tables_number   1
_chemical_formula_structural   DyTl2InS4
_chemical_formula_sum   'Dy1 Tl2 In1 S4'
_cell_volume   209.08554740
_cell_formula_units_Z   1
loop_
 _symmetry_equiv_pos_site_id
 _symmetry_equiv_pos_as_xyz
  1  'x, y, z'
loop_
 _atom_site_type_symbol
 _atom_site_label
 _atom_site_symmetry_multiplicity
 _atom_site_fract_x
 _atom_site_fract_y
 _atom_site_fract_z
 _atom_site_occupancy
  Dy  Dy0  1  0.50000000  0.50000000  0.00000000  1
  In  In1  1  0.00000000  0.00000000  0.00000000  1
  S  S2  1  0.06148847  0.06148847  0.64984516  1
  S  S3  1  0.41164331  0.41164331  0.35015484  1
  S  S4  1  0.58835669  0.93851153  0.00000000  1
  S  S5  1  0.93851153  0.58835669  0.00000000  1
  Tl  Tl6  1  0.50000000  0.00000000  0.50000000  1
  Tl  Tl7  1  0.00000000  0.50000000  0.50000000  1
