# generated using pymatgen
data_GaAgS2
_symmetry_space_group_name_H-M   'P 1'
_cell_length_a   7.24438265
_cell_length_b   7.24438265
_cell_length_c   7.24438265
_cell_angle_alpha   28.72897818
_cell_angle_beta   28.72897818
_cell_angle_gamma   28.72897818
_symmetry_Int_Tables_number   1
_chemical_formula_structural   GaAgS2
_chemical_formula_sum   'Ga1 Ag1 S2'
_cell_volume   77.66363398
_cell_formula_units_Z   1
loop_
 _symmetry_equiv_pos_site_id
 _symmetry_equiv_pos_as_xyz
  1  'x, y, z'
loop_
 _atom_site_type_symbol
 _atom_site_label
 _atom_site_symmetry_multiplicity
 _atom_site_fract_x
 _atom_site_fract_y
 _atom_site_fract_z
 _atom_site_occupancy
  Ag  Ag0  1  0.15484179  0.15484179  0.15484179  1
  Ga  Ga1  1  0.99844203  0.99844203  0.99844203  1
  S  S2  1  0.27061828  0.27061828  0.27061828  1
  S  S3  1  0.73509891  0.73509891  0.73509891  1
