# generated using pymatgen
data_Cu2SnS3
_symmetry_space_group_name_H-M   'P 1'
_cell_length_a   6.69386699
_cell_length_b   6.69386699
_cell_length_c   6.72320847
_cell_angle_alpha   80.30268760
_cell_angle_beta   99.69731240
_cell_angle_gamma   59.99619491
_symmetry_Int_Tables_number   1
_chemical_formula_structural   Cu2SnS3
_chemical_formula_sum   'Cu4 Sn2 S6'
_cell_volume   245.63076150
_cell_formula_units_Z   2
loop_
 _symmetry_equiv_pos_site_id
 _symmetry_equiv_pos_as_xyz
  1  'x, y, z'
loop_
 _atom_site_type_symbol
 _atom_site_label
 _atom_site_symmetry_multiplicity
 _atom_site_fract_x
 _atom_site_fract_y
 _atom_site_fract_z
 _atom_site_occupancy
  Cu  Cu0  1  0.39520100  0.44179700  0.98644800  1
  Cu  Cu1  1  0.24130200  0.26263900  0.48798300  1
  Cu  Cu2  1  0.55820300  0.60479900  0.48644800  1
  Cu  Cu3  1  0.73736100  0.75869800  0.98798300  1
  Sn  Sn4  1  0.90604900  0.90879000  0.50437400  1
  Sn  Sn5  1  0.09121000  0.09395100  0.00437400  1
  S  S6  1  0.93930600  0.24373900  0.60334100  1
  S  S7  1  0.75626100  0.06069400  0.10334100  1
  S  S8  1  0.11608500  0.40678800  0.12407700  1
  S  S9  1  0.59321200  0.88391500  0.62407700  1
  S  S10  1  0.47028000  0.69907200  0.12277600  1
  S  S11  1  0.30092800  0.52972000  0.62277600  1
