# generated using pymatgen
data_Cu2GeS3
_symmetry_space_group_name_H-M   'P 1'
_cell_length_a   6.51108833
_cell_length_b   6.51108833
_cell_length_c   6.51528691
_cell_angle_alpha   80.60816766
_cell_angle_beta   99.39183234
_cell_angle_gamma   59.65007360
_symmetry_Int_Tables_number   1
_chemical_formula_structural   Cu2GeS3
_chemical_formula_sum   'Cu4 Ge2 S6'
_cell_volume   225.16229361
_cell_formula_units_Z   2
loop_
 _symmetry_equiv_pos_site_id
 _symmetry_equiv_pos_as_xyz
  1  'x, y, z'
loop_
 _atom_site_type_symbol
 _atom_site_label
 _atom_site_symmetry_multiplicity
 _atom_site_fract_x
 _atom_site_fract_y
 _atom_site_fract_z
 _atom_site_occupancy
  Cu  Cu0  1  0.03011800  0.80076000  0.85989400  1
  Cu  Cu1  1  0.37303200  0.13064900  0.85975200  1
  Cu  Cu2  1  0.19924000  0.96988200  0.35989400  1
  Cu  Cu3  1  0.86935100  0.62696800  0.35975200  1
  Ge  Ge4  1  0.72349800  0.45147700  0.87917100  1
  Ge  Ge5  1  0.54852300  0.27650200  0.37917100  1
  S  S6  1  0.24925800  0.25474500  0.48783900  1
  S  S7  1  0.74525500  0.75074200  0.98783900  1
  S  S8  1  0.91745100  0.91336000  0.48594500  1
  S  S9  1  0.08664000  0.08254900  0.98594500  1
  S  S10  1  0.41150400  0.42187000  0.99239800  1
  S  S11  1  0.57813000  0.58849600  0.49239800  1
