# generated using pymatgen
data_BaGa4Se7
_symmetry_space_group_name_H-M   'P 1'
_cell_length_a   7.77078600
_cell_length_b   6.65009700
_cell_length_c   14.98818877
_cell_angle_alpha   90.00000000
_cell_angle_beta   121.16153937
_cell_angle_gamma   90.00000000
_symmetry_Int_Tables_number   1
_chemical_formula_structural   BaGa4Se7
_chemical_formula_sum   'Ba2 Ga8 Se14'
_cell_volume   662.78032014
_cell_formula_units_Z   2
loop_
 _symmetry_equiv_pos_site_id
 _symmetry_equiv_pos_as_xyz
  1  'x, y, z'
loop_
 _atom_site_type_symbol
 _atom_site_label
 _atom_site_symmetry_multiplicity
 _atom_site_fract_x
 _atom_site_fract_y
 _atom_site_fract_z
 _atom_site_occupancy
  Ba  Ba0  1  0.56404400  0.64691600  0.54629300  1
  Ba  Ba1  1  0.56404400  0.35308400  0.04629300  1
  Ga  Ga2  1  0.00710100  0.83390900  0.24059400  1
  Ga  Ga3  1  0.00710100  0.16609100  0.74059400  1
  Ga  Ga4  1  0.00011800  0.99177300  0.50015900  1
  Ga  Ga5  1  0.00011800  0.00822700  0.00015900  1
  Ga  Ga6  1  0.49245400  0.84150100  0.22775600  1
  Ga  Ga7  1  0.49245400  0.15849900  0.72775600  1
  Ga  Ga8  1  0.23740500  0.63674900  0.72518900  1
  Ga  Ga9  1  0.23740500  0.36325100  0.22518900  1
  Se  Se10  1  0.78394700  0.85014200  0.05412800  1
  Se  Se11  1  0.78394700  0.14985800  0.55412800  1
  Se  Se12  1  0.00557400  0.63848800  0.53929600  1
  Se  Se13  1  0.00557400  0.36151200  0.03929600  1
  Se  Se14  1  0.32876100  0.89104000  0.04291100  1
  Se  Se15  1  0.32876100  0.10896000  0.54291100  1
  Se  Se16  1  0.32876200  0.98227100  0.80903400  1
  Se  Se17  1  0.32876200  0.01772900  0.30903400  1
  Se  Se18  1  0.09827500  0.49053400  0.82272700  1
  Se  Se19  1  0.09827500  0.50946600  0.32272700  1
  Se  Se20  1  0.56839000  0.50428900  0.77970800  1
  Se  Se21  1  0.56839000  0.49571100  0.27970800  1
  Se  Se22  1  0.81708900  0.97090000  0.80424400  1
  Se  Se23  1  0.81708900  0.02910000  0.30424400  1
