# generated using pymatgen
data_Na4Mg(SiSe3)2
_symmetry_space_group_name_H-M   'P 1'
_cell_length_a   7.11881637
_cell_length_b   7.11881637
_cell_length_c   7.10434795
_cell_angle_alpha   81.00162208
_cell_angle_beta   98.99837792
_cell_angle_gamma   65.94017872
_symmetry_Int_Tables_number   1
_chemical_formula_structural   Na4Mg(SiSe3)2
_chemical_formula_sum   'Na4 Mg1 Si2 Se6'
_cell_volume   314.88116838
_cell_formula_units_Z   1
loop_
 _symmetry_equiv_pos_site_id
 _symmetry_equiv_pos_as_xyz
  1  'x, y, z'
loop_
 _atom_site_type_symbol
 _atom_site_label
 _atom_site_symmetry_multiplicity
 _atom_site_fract_x
 _atom_site_fract_y
 _atom_site_fract_z
 _atom_site_occupancy
  Na  Na0  1  0.48812200  0.48812200  0.50000000  1
  Na  Na1  1  0.64168100  0.64168100  0.00000000  1
  Na  Na2  1  0.31764500  0.31764500  0.00000000  1
  Na  Na3  1  0.95361300  0.95361300  0.00000000  1
  Mg  Mg4  1  0.12776200  0.12776200  0.50000000  1
  Si  Si5  1  0.64520300  0.96046200  0.44566700  1
  Si  Si6  1  0.96046200  0.64520300  0.55433300  1
  Se  Se7  1  0.73930200  0.19754100  0.26938700  1
  Se  Se8  1  0.19754100  0.73930200  0.73061300  1
  Se  Se9  1  0.52823000  0.05830600  0.71500100  1
  Se  Se10  1  0.05830600  0.52823000  0.28499900  1
  Se  Se11  1  0.38044500  0.91852900  0.25466200  1
  Se  Se12  1  0.91852900  0.38044500  0.74533800  1
