# generated using pymatgen
data_Ba(BS2)2
_symmetry_space_group_name_H-M   'P 1'
_cell_length_a   8.69324101
_cell_length_b   8.69324101
_cell_length_c   6.06975874
_cell_angle_alpha   82.36278473
_cell_angle_beta   97.63721527
_cell_angle_gamma   46.22344444
_symmetry_Int_Tables_number   1
_chemical_formula_structural   Ba(BS2)2
_chemical_formula_sum   'Ba2 B4 S8'
_cell_volume   311.64446870
_cell_formula_units_Z   2
loop_
 _symmetry_equiv_pos_site_id
 _symmetry_equiv_pos_as_xyz
  1  'x, y, z'
loop_
 _atom_site_type_symbol
 _atom_site_label
 _atom_site_symmetry_multiplicity
 _atom_site_fract_x
 _atom_site_fract_y
 _atom_site_fract_z
 _atom_site_occupancy
  Ba  Ba0  1  0.19901000  0.10761700  0.95612100  1
  Ba  Ba1  1  0.89238300  0.80099000  0.45612100  1
  B  B2  1  0.49594500  0.54161200  0.56090700  1
  B  B3  1  0.45838800  0.50405500  0.06090700  1
  B  B4  1  0.59971400  0.13621200  0.87280600  1
  B  B5  1  0.86378800  0.40028600  0.37280600  1
  S  S6  1  0.31302900  0.70949300  0.74843500  1
  S  S7  1  0.43777600  0.29490600  0.06021200  1
  S  S8  1  0.13404800  0.29473200  0.41840700  1
  S  S9  1  0.70526800  0.86595200  0.91840700  1
  S  S10  1  0.67811400  0.22226300  0.66519100  1
  S  S11  1  0.77773700  0.32188600  0.16519100  1
  S  S12  1  0.70509400  0.56222400  0.56021200  1
  S  S13  1  0.29050700  0.68697100  0.24843500  1
