# generated using pymatgen
data_Ag4HgGe2S7
_symmetry_space_group_name_H-M   'P 1'
_cell_length_a   9.56908987
_cell_length_b   9.56908987
_cell_length_c   10.66264830
_cell_angle_alpha   87.11717712
_cell_angle_beta   92.88282288
_cell_angle_gamma   137.42057296
_symmetry_Int_Tables_number   1
_chemical_formula_structural   Ag4HgGe2S7
_chemical_formula_sum   'Ag8 Hg2 Ge4 S14'
_cell_volume   659.64794582
_cell_formula_units_Z   2
loop_
 _symmetry_equiv_pos_site_id
 _symmetry_equiv_pos_as_xyz
  1  'x, y, z'
loop_
 _atom_site_type_symbol
 _atom_site_label
 _atom_site_symmetry_multiplicity
 _atom_site_fract_x
 _atom_site_fract_y
 _atom_site_fract_z
 _atom_site_occupancy
  Ag  Ag0  1  0.17961100  0.17105500  0.99929300  1
  Ag  Ag1  1  0.82894500  0.82038900  0.49929300  1
  Ag  Ag2  1  0.26122200  0.38999200  0.61295000  1
  Ag  Ag3  1  0.61000800  0.73877800  0.11295000  1
  Ag  Ag4  1  0.10579300  0.52964700  0.90221800  1
  Ag  Ag5  1  0.47035300  0.89420700  0.40221800  1
  Ag  Ag6  1  0.85193900  0.40076200  0.55464700  1
  Ag  Ag7  1  0.59923800  0.14806100  0.05464700  1
  Hg  Hg8  1  0.33445800  0.03329900  0.71286700  1
  Hg  Hg9  1  0.96670100  0.66554200  0.21286700  1
  Ge  Ge10  1  0.74520600  0.59954200  0.82946000  1
  Ge  Ge11  1  0.40045800  0.25479400  0.32946000  1
  Ge  Ge12  1  0.69015200  0.96385500  0.75548900  1
  Ge  Ge13  1  0.03614500  0.30984800  0.25548900  1
  S  S14  1  0.13835300  0.19992900  0.40348100  1
  S  S15  1  0.80007100  0.86164700  0.90348100  1
  S  S16  1  0.96739700  0.29833300  0.71712100  1
  S  S17  1  0.70166700  0.03260300  0.21712100  1
  S  S18  1  0.45234300  0.91210400  0.85894300  1
  S  S19  1  0.08789600  0.54765700  0.35894300  1
  S  S20  1  0.85702100  0.52674400  0.98138100  1
  S  S21  1  0.47325600  0.14297900  0.48138100  1
  S  S22  1  0.93515000  0.70547100  0.65889700  1
  S  S23  1  0.29452900  0.06485000  0.15889700  1
  S  S24  1  0.67297400  0.59814000  0.29545800  1
  S  S25  1  0.40186000  0.32702600  0.79545800  1
  S  S26  1  0.55948800  0.78243400  0.58239500  1
  S  S27  1  0.21756600  0.44051200  0.08239500  1
