# generated using pymatgen
data_BaLi(BS2)3
_symmetry_space_group_name_H-M   'P 1'
_cell_length_a   8.85948852
_cell_length_b   8.85948852
_cell_length_c   8.42972128
_cell_angle_alpha   66.24950612
_cell_angle_beta   113.75049388
_cell_angle_gamma   119.49107232
_symmetry_Int_Tables_number   1
_chemical_formula_structural   BaLi(BS2)3
_chemical_formula_sum   'Ba2 Li2 B6 S12'
_cell_volume   509.48999299
_cell_formula_units_Z   2
loop_
 _symmetry_equiv_pos_site_id
 _symmetry_equiv_pos_as_xyz
  1  'x, y, z'
loop_
 _atom_site_type_symbol
 _atom_site_label
 _atom_site_symmetry_multiplicity
 _atom_site_fract_x
 _atom_site_fract_y
 _atom_site_fract_z
 _atom_site_occupancy
  Ba  Ba0  1  0.13718700  0.61880400  0.02503300  1
  Ba  Ba1  1  0.38119600  0.86281300  0.52503300  1
  Li  Li2  1  0.49889000  0.29632400  0.06886000  1
  Li  Li3  1  0.70367600  0.50111000  0.56886000  1
  B  B4  1  0.84275800  0.24374400  0.45306400  1
  B  B5  1  0.75625600  0.15724200  0.95306400  1
  B  B6  1  0.02056100  0.98409600  0.55059200  1
  B  B7  1  0.01590400  0.97943900  0.05059200  1
  B  B8  1  0.24490200  0.38611300  0.47698300  1
  B  B9  1  0.61388700  0.75509800  0.97698300  1
  S  S10  1  0.42090400  0.56336500  0.91962600  1
  S  S11  1  0.24511200  0.16180900  0.56006300  1
  S  S12  1  0.98657700  0.18682300  0.99422800  1
  S  S13  1  0.56069400  0.94466200  0.93859700  1
  S  S14  1  0.64787800  0.27854200  0.41468500  1
  S  S15  1  0.43663500  0.57909600  0.41962600  1
  S  S16  1  0.05533800  0.43930600  0.43859700  1
  S  S17  1  0.81317700  0.01342300  0.49422800  1
  S  S18  1  0.00652600  0.76250700  0.59476800  1
  S  S19  1  0.23749300  0.99347400  0.09476800  1
  S  S20  1  0.72145800  0.35212200  0.91468500  1
  S  S21  1  0.83819100  0.75488800  0.06006300  1
